(PID.TID 0000.0001) 
(PID.TID 0000.0001) // ======================================================
(PID.TID 0000.0001) //                      MITgcm UV
(PID.TID 0000.0001) //                      =========
(PID.TID 0000.0001) // ======================================================
(PID.TID 0000.0001) // execution environment starting up...
(PID.TID 0000.0001) // Run starting Wed Apr  1 14:19:48 1998
(PID.TID 0000.0001) // on melville.lcs.mit.edu
(PID.TID 0000.0001) // account cnh
(PID.TID 0000.0001) // MITgcm UV Release: $Name$
(PID.TID 0000.0001) 
(PID.TID 0000.0001) // =======================================================
(PID.TID 0000.0001) // Execution Environment parameter file "eedata"
(PID.TID 0000.0001) // =======================================================
(PID.TID 0000.0001) ># Example "eedata" file
(PID.TID 0000.0001) ># Lines beginning "#" are comments
(PID.TID 0000.0001) ># nTx - No. threads per process in X
(PID.TID 0000.0001) ># nTy - No. threads per process in Y
(PID.TID 0000.0001) > &EEPARMS
(PID.TID 0000.0001) > nTx=1,nTy=1
(PID.TID 0000.0001) > &
(PID.TID 0000.0001) ># Note: Some systems use & as the
(PID.TID 0000.0001) ># namelist terminator. Other systems
(PID.TID 0000.0001) ># use a / character (as shown here).
(PID.TID 0000.0001) 
(PID.TID 0000.0001) // =======================================================
(PID.TID 0000.0001) // Computational Grid Specification ( see files "SIZE.h" )
(PID.TID 0000.0001) //                                  ( and "eedata"       )
(PID.TID 0000.0001) // =======================================================
(PID.TID 0000.0001)      nPx =    1 ; /* No. processes in X */
(PID.TID 0000.0001)      nPy =    1 ; /* No. processes in Y */
(PID.TID 0000.0001)      nSx =    1 ; /* No. tiles in X per process */
(PID.TID 0000.0001)      nSy =    1 ; /* No. tiles in Y per process */
(PID.TID 0000.0001)      sNx =   20 ; /* Tile size in X */
(PID.TID 0000.0001)      sNy =   16 ; /* Tile size in Y */
(PID.TID 0000.0001)      OLx =    4 ; /* Tile overlap distance in X */
(PID.TID 0000.0001)      OLy =    4 ; /* Tile overlap distance in Y */
(PID.TID 0000.0001)      nTx =    1 ; /* No. threads in X per process */
(PID.TID 0000.0001)      nTy =    1 ; /* No. threads in Y per process */
(PID.TID 0000.0001)       Nr =   23 ; /* No. levels in the vertical   */
(PID.TID 0000.0001)       nX =   20 ; /* Total domain size in X ( = nPx*nSx*sNx ) */
(PID.TID 0000.0001)       nY =   16 ; /* Total domain size in Y ( = nPy*nSy*sNy ) */
(PID.TID 0000.0001)   nTiles =    1 ; /* Total no. tiles per process ( = nSx*nSy ) */
(PID.TID 0000.0001)   nProcs =    1 ; /* Total no. processes ( = nPx*nPy ) */
(PID.TID 0000.0001) nThreads =    1 ; /* Total no. threads per process ( = nTx*nTy ) */
(PID.TID 0000.0001) usingMPI =    F ; /* Flag used to control whether MPI is in use */
(PID.TID 0000.0001)                   /*  note: To execute a program with MPI calls */
(PID.TID 0000.0001)                   /*  it must be launched appropriately e.g     */
(PID.TID 0000.0001)                   /*  "mpirun -np 64 ......"                    */
(PID.TID 0000.0001) 
(PID.TID 0000.0001) // ======================================================
(PID.TID 0000.0001) // Mapping of tiles to threads
(PID.TID 0000.0001) // ======================================================
(PID.TID 0000.0001) // -o- Thread   1, tiles (   1:   1,   1:   1)
(PID.TID 0000.0001) 
(PID.TID 0000.0001) // ======================================================
(PID.TID 0000.0001) // Tile <-> Tile connectvity table
(PID.TID 0000.0001) // ======================================================
(PID.TID 0000.0001) // Tile number: 000001 (process no. = 000001)
(PID.TID 0000.0001) //        WEST: Tile = 000001, Process = 000001, Comm = put
(PID.TID 0000.0001) //                bi = 000001, bj = 000001
(PID.TID 0000.0001) //        EAST: Tile = 000001, Process = 000001, Comm = put
(PID.TID 0000.0001) //                bi = 000001, bj = 000001
(PID.TID 0000.0001) //       SOUTH: Tile = 000001, Process = 000001, Comm = put
(PID.TID 0000.0001) //                bi = 000001, bj = 000001
(PID.TID 0000.0001) //       NORTH: Tile = 000001, Process = 000001, Comm = put
(PID.TID 0000.0001) //                bi = 000001, bj = 000001
(PID.TID 0000.0001) 
 pathei: vor initialise_fixed
(PID.TID 0000.0001) // =======================================================
(PID.TID 0000.0001) // Model parameter file "data"
(PID.TID 0000.0001) // =======================================================
(PID.TID 0000.0001) >#
(PID.TID 0000.0001) ># ******************************
(PID.TID 0000.0001) ># Model parameters
(PID.TID 0000.0001) ># Continuous equation parameters
(PID.TID 0000.0001) ># ******************************
(PID.TID 0000.0001) >#
(PID.TID 0000.0001) >#   tRef            - Reference vertical potential temperature          (deg C)
(PID.TID 0000.0001) >#   sRef            - Reference vertical salinity                         (PSU)
(PID.TID 0000.0001) >#   viscAh          - Horizontal eddy viscosity coefficient             (m^2/s)
(PID.TID 0000.0001) >#   viscAz          - Vertical eddy viscosity coefficient               (m^2/s)
(PID.TID 0000.0001) >#   diffKhT         - Horizontal temperature diffusivity                (m^2/s)
(PID.TID 0000.0001) >#   diffKzT         - Vertical temperature diffusivity                  (m^2/s)
(PID.TID 0000.0001) >#   diffKhS         - Horizontal salt diffusivity                       (m^2/s)
(PID.TID 0000.0001) >#   diffKzS         - Vertical salt diffusivity                         (m^2/s)
(PID.TID 0000.0001) >#   f0              - Reference coriolis parameter,
(PID.TID 0000.0001) >#                     south edge of f on beta plane                       (1/s)
(PID.TID 0000.0001) >#   beta            - df/dy                                         (s^-1.m^-1)
(PID.TID 0000.0001) >#   tAlpha          - Linear EOS thermal expansion coefficient           (1/oC)
(PID.TID 0000.0001) >#   sBeta           - Linear EOS haline contraction coefficient         (1/ppt)
(PID.TID 0000.0001) >#   gravity         - Acceleration due to gravity                       (m/s^2)
(PID.TID 0000.0001) >#   gBaro           - Accel. due to gravity used in barotropic equation (m/s^2)
(PID.TID 0000.0001) >#   rigidLid        - Set to true to use rigid lid
(PID.TID 0000.0001) >#   implicitFreeSurface - Set to true to use implicit free surface
(PID.TID 0000.0001) >#   eosType         - Flag for linear or polynomial equation of state
(PID.TID 0000.0001) >#   momAdvection    - On/Off flag for momentum self transport
(PID.TID 0000.0001) >#   momViscosity    - On/Off flag for momentum mixing
(PID.TID 0000.0001) >#
(PID.TID 0000.0001) > &PARM01
(PID.TID 0000.0001) > tRef= 24.0 , 23.0 , 22.0 , 21.0 , 20.0 ,
(PID.TID 0000.0001) >       19.0 , 18.0 , 17.0 , 16.0 , 15.0 ,
(PID.TID 0000.0001) >       14.0 , 13.0 , 12.0 , 11.0 , 10.0 ,
(PID.TID 0000.0001) >        9.0 ,  8.0 ,  7.0 ,  6.0,   5.0 ,
(PID.TID 0000.0001) >        4.0 ,  3.0 ,  2.0 ,
(PID.TID 0000.0001) > sRef= 34.65, 34.75, 34.82, 34.87, 34.90,
(PID.TID 0000.0001) >       34.90, 34.86, 34.78, 34.69, 34.60,
(PID.TID 0000.0001) >       34.58, 34.62, 34.68, 34.72, 34.73,
(PID.TID 0000.0001) >       34.74, 34.73, 34.73, 34.72, 34.72,
(PID.TID 0000.0001) >       34.71, 34.70, 34.69,
(PID.TID 0000.0001) > viscAz              = 1.E-3,
(PID.TID 0000.0001) > viscAh              = 5.E4,
(PID.TID 0000.0001) > viscA4              = 5.E12,
(PID.TID 0000.0001) > diffKzT             = 1.E-5,
(PID.TID 0000.0001) > diffKzS             = 1.E-5,
(PID.TID 0000.0001) > diffKhT             = 1.E3,
(PID.TID 0000.0001) > diffKhS             = 1.E3,
(PID.TID 0000.0001) > f0                  = 1.E-4,
(PID.TID 0000.0001) > beta                = 1.E-11,
(PID.TID 0000.0001) > tAlpha              = 2.E-4,
(PID.TID 0000.0001) > sBeta               = 7.4E-4,
(PID.TID 0000.0001) > gravity             = 9.81,
(PID.TID 0000.0001) > gBaro               = 9.81,
(PID.TID 0000.0001) > rigidLid            = .FALSE.,
(PID.TID 0000.0001) > implicitFreeSurface = .TRUE.,
(PID.TID 0000.0001) > implicitDiffusion   = .TRUE.,
(PID.TID 0000.0001) > implicitViscosity   = .TRUE.,
(PID.TID 0000.0001) > no_slip_sides       = .FALSE.,
(PID.TID 0000.0001) > no_slip_bottom      = .TRUE.,
(PID.TID 0000.0001) > saltStepping        = .TRUE.,
(PID.TID 0000.0001) > tempStepping        = .TRUE.,
(PID.TID 0000.0001) > momStepping         = .TRUE.,
(PID.TID 0000.0001) > momAdvection        = .TRUE.,
(PID.TID 0000.0001) > momViscosity        = .TRUE.,
(PID.TID 0000.0001) > eosType             = 'POLY3',
(PID.TID 0000.0001) > readBinaryPrec      = 32,
(PID.TID 0000.0001) > writeBinaryPrec     = 32,
(PID.TID 0000.0001) > &
(PID.TID 0000.0001) >
(PID.TID 0000.0001) ># **************************
(PID.TID 0000.0001) ># Elliptic solver parameters
(PID.TID 0000.0001) ># **************************
(PID.TID 0000.0001) >#
(PID.TID 0000.0001) >#   cg2dMaxIters       - Maximum number of 2d solver iterations
(PID.TID 0000.0001) >#   cg2dTargetResidual - Solver target residual
(PID.TID 0000.0001) >#
(PID.TID 0000.0001) > &PARM02
(PID.TID 0000.0001) > cg2dMaxIters=1000,
(PID.TID 0000.0001) > cg2dTargetResidual=1.E-13,
(PID.TID 0000.0001) > &
(PID.TID 0000.0001) >
(PID.TID 0000.0001) ># ************************
(PID.TID 0000.0001) ># Time stepping parameters
(PID.TID 0000.0001) ># ************************
(PID.TID 0000.0001) >#
(PID.TID 0000.0001) >#   startTime         - Integration starting time                (s)
(PID.TID 0000.0001) >#   endTime           - Integration ending time                  (s)
(PID.TID 0000.0001) >#   tauCD             - CD scheme coupling timescale             (s)
(PID.TID 0000.0001) >#   deltaTMom         - Timestep for momemtum equations          (s)
(PID.TID 0000.0001) >#   deltaTtracer      - Tracer timestep                          (s)
(PID.TID 0000.0001) >#   deltaTClock       - Timestep used as model "clock"           (s)
(PID.TID 0000.0001) >#   abEps             - Adams-Bashforth stabilising factor
(PID.TID 0000.0001) >#   pChkPtFreq        - Frequency of permanent check pointing    (s)
(PID.TID 0000.0001) >#   chkPtFreq         - Frequency of rolling check pointing      (s)
(PID.TID 0000.0001) >#   dumpFreq          - Frequency at which model state is stored (s)
(PID.TID 0000.0001) >#   tauThetaClimRelax - Relaxation to climatology time scale     (s)
(PID.TID 0000.0001) >#   tauSaltClimRelax  - Relaxation to climatology time scale     (s)
(PID.TID 0000.0001) >#
(PID.TID 0000.0001) > &PARM03
(PID.TID 0000.0001) > startTime         = 0.0,
(PID.TID 0000.0001) > endTime           = 2613600.0,
(PID.TID 0000.0001) > deltaTmom         = 3600.0,
(PID.TID 0000.0001) > deltaTtracer      = 3600.0,
(PID.TID 0000.0001) > deltaTClock       = 3600.0,
(PID.TID 0000.0001) > tauCD             = 172800.0,
(PID.TID 0000.0001) > abEps             = 0.1,
(PID.TID 0000.0001) > cAdjFreq          = 0.0,
(PID.TID 0000.0001) > pChkptFreq        = 0.0,
(PID.TID 0000.0001) > chkptFreq         = 0.0,
(PID.TID 0000.0001) > dumpFreq          = 864000.0,
(PID.TID 0000.0001) > tauThetaClimRelax = 2592000.0,
(PID.TID 0000.0001) > tauSaltClimRelax  = 2592000.0,
(PID.TID 0000.0001) > &
(PID.TID 0000.0001) >
(PID.TID 0000.0001) ># *******************
(PID.TID 0000.0001) ># Gridding parameters
(PID.TID 0000.0001) ># *******************
(PID.TID 0000.0001) >#
(PID.TID 0000.0001) >#   usingSphericalPolarGrid - On/Off flag for spherical polar coordinates
(PID.TID 0000.0001) >#   usingCartesianGrid      - On/Off flag for selecting cartesian coordinates
(PID.TID 0000.0001) >#   delX                    - Zonal grid spacing         (degrees)
(PID.TID 0000.0001) >#   delY                    - Meridional grid spacing    (degrees)
(PID.TID 0000.0001) >#   delZ                    - Vertical grid spacing      (m)
(PID.TID 0000.0001) >#   phiMin                  - Southern boundary latitude (degrees)
(PID.TID 0000.0001) >#
(PID.TID 0000.0001) > &PARM04
(PID.TID 0000.0001) > usingCartesianGrid=.FALSE.,
(PID.TID 0000.0001) > usingSphericalPolarGrid=.TRUE.,
(PID.TID 0000.0001) > delX = 20*2.E0,
(PID.TID 0000.0001) > delY = 16*2.E0,
(PID.TID 0000.0001) > delZ = 10.,10.,15.,20.,20.,25.,35.,50.,75.,100.,
(PID.TID 0000.0001) >        150.,200.,275.,350.,415.,450.,500.,500.,500.,500.,
(PID.TID 0000.0001) >        500.,500.,500.,
(PID.TID 0000.0001) > phimin=10.,
(PID.TID 0000.0001) > thetamin=-42.,
(PID.TID 0000.0001) > &
(PID.TID 0000.0001) ># **********
(PID.TID 0000.0001) ># Data Files
(PID.TID 0000.0001) ># **********
(PID.TID 0000.0001) >#
(PID.TID 0000.0001) >#   bathyFile       - File containing bathymetry
(PID.TID 0000.0001) >#   hydrogThetaFile - File containing initial potential temperature data
(PID.TID 0000.0001) >#   hydrogSaltFile  - File containing initial salinity data
(PID.TID 0000.0001) >#
(PID.TID 0000.0001) > &PARM05
(PID.TID 0000.0001) > bathyFile       = 'kf_topog',
(PID.TID 0000.0001) > hydrogThetaFile = 'kf_climtheta',
(PID.TID 0000.0001) > hydrogSaltFile  = 'kf_climsalt',
(PID.TID 0000.0001) > &
(PID.TID 0000.0001) >
(PID.TID 0000.0001) ># Open boundaries
(PID.TID 0000.0001) > &PARM06
(PID.TID 0000.0001) > &
(PID.TID 0000.0001) >
(PID.TID 0000.0001) ># Note: Some systems use & as the
(PID.TID 0000.0001) ># namelist terminator. Other systems
(PID.TID 0000.0001) ># use a / character (as shown here).
(PID.TID 0000.0001) 
(PID.TID 0000.0001)  MDSREADFIELD: opening global file: kf_topog
(PID.TID 0000.0001) // =======================================================
(PID.TID 0000.0001) // Field Model depths at iteration          1
(PID.TID 0000.0001) // CMIN =         -5.200000000000000E+03
(PID.TID 0000.0001) // CMAX =         -3.600000000000000E+02
(PID.TID 0000.0001) // CINT =          1.792592592592593E+02
(PID.TID 0000.0001) // SYMBOLS (CMIN->CMAX): -abcdefghijklmnopqrstuvwxyz+
(PID.TID 0000.0001) //                  0.0: .
(PID.TID 0000.0001) // RANGE I (Lo:Hi:Step):(  -3:  24:   1)
(PID.TID 0000.0001) // RANGE J (Lo:Hi:Step):(  20:  -3:  -1)
(PID.TID 0000.0001) // RANGE K (Lo:Hi:Step):(   1:   1:   1)
(PID.TID 0000.0001) // =======================================================
(PID.TID 0000.0001) K =   1
(PID.TID 0000.0001) //                I=6       I=16
(PID.TID 0000.0001) // |--J--|***012345|789012345|78901234
(PID.TID 0000.0001) //     20 .....cc-----cfkhkz.......cc-
(PID.TID 0000.0001) //     19 .....c-------cccfy.......c--
(PID.TID 0000.0001) //     18 .....hcc------ccfx.......hcc
(PID.TID 0000.0001) //     17 ............................
(PID.TID 0000.0001) //     16 ............................
(PID.TID 0000.0001) //     15 hv+..fhknsqknnff-ckhhv+..fhk
(PID.TID 0000.0001) //     14 fhx..hknnnnkhcc-chhhfhx..hkn
(PID.TID 0000.0001) //     13 fz...knnkhknf--chkfffz...knn
(PID.TID 0000.0001) //     12 q....nkhfffhc--cffhnq....nkh
(PID.TID 0000.0001) //     11 +....khfccccc-ccfkkv+....khf
(PID.TID 0000.0001) //     10 .....hcc---cc-cfhks......hcc
(PID.TID 0000.0001) //      9 .....fc-------cfkq.......fc-
(PID.TID 0000.0001) //      8 .....c-------ccfkx.......c--
(PID.TID 0000.0001) //      7 .....c---cfcccfhk+.......c--
(PID.TID 0000.0001) //      6 .....c---cccffhknv.......c--
(PID.TID 0000.0001) //      5 .....c--ccccfkkkkq.......c--
(PID.TID 0000.0001) //      4 .....cc-----cfkhkz.......cc-
(PID.TID 0000.0001) //      3 .....c-------cccfy.......c--
(PID.TID 0000.0001) //      2 .....hcc------ccfx.......hcc
(PID.TID 0000.0001) //      1 ............................
(PID.TID 0000.0001) //      0 ............................
(PID.TID 0000.0001) //     -1 hv+..fhknsqknnff-ckhhv+..fhk
(PID.TID 0000.0001) //     -2 fhx..hknnnnkhcc-chhhfhx..hkn
(PID.TID 0000.0001) //     -3 fz...knnkhknf--chkfffz...knn
(PID.TID 0000.0001) // =======================================================
(PID.TID 0000.0001) // END OF FIELD                                          =
(PID.TID 0000.0001) // =======================================================
(PID.TID 0000.0001) 
(PID.TID 0000.0001) // =======================================================
(PID.TID 0000.0001) // Field Model Depths K Index at iteration          1
(PID.TID 0000.0001) // CMIN =          2.300000000000000E+01
(PID.TID 0000.0001) // CMAX =          2.300000000000000E+01
(PID.TID 0000.0001) // CINT =          0.000000000000000E+00
(PID.TID 0000.0001) // SYMBOLS (CMIN->CMAX): -abcdefghijklmnopqrstuvwxyz+
(PID.TID 0000.0001) //                  0.0: .
(PID.TID 0000.0001) // RANGE I (Lo:Hi:Step):(  -3:  24:   1)
(PID.TID 0000.0001) // RANGE J (Lo:Hi:Step):(  20:  -3:  -1)
(PID.TID 0000.0001) // RANGE K (Lo:Hi:Step):(   1:   1:   1)
(PID.TID 0000.0001) // =======================================================
(PID.TID 0000.0001) K =   1
(PID.TID 0000.0001) //                I=6       I=16
(PID.TID 0000.0001) // |--J--|***012345|789012345|78901234
(PID.TID 0000.0001) //     20 ----------------------------
(PID.TID 0000.0001) //     19 ----------------------------
(PID.TID 0000.0001) //     18 ----------------------------
(PID.TID 0000.0001) //     17 ----------------------------
(PID.TID 0000.0001) //     16 ----------------------------
(PID.TID 0000.0001) //     15 ----------------------------
(PID.TID 0000.0001) //     14 ----------------------------
(PID.TID 0000.0001) //     13 ----------------------------
(PID.TID 0000.0001) //     12 ----------------------------
(PID.TID 0000.0001) //     11 ----------------------------
(PID.TID 0000.0001) //     10 ----------------------------
(PID.TID 0000.0001) //      9 ----------------------------
(PID.TID 0000.0001) //      8 ----------------------------
(PID.TID 0000.0001) //      7 ----------------------------
(PID.TID 0000.0001) //      6 ----------------------------
(PID.TID 0000.0001) //      5 ----------------------------
(PID.TID 0000.0001) //      4 ----------------------------
(PID.TID 0000.0001) //      3 ----------------------------
(PID.TID 0000.0001) //      2 ----------------------------
(PID.TID 0000.0001) //      1 ----------------------------
(PID.TID 0000.0001) //      0 ----------------------------
(PID.TID 0000.0001) //     -1 ----------------------------
(PID.TID 0000.0001) //     -2 ----------------------------
(PID.TID 0000.0001) //     -3 ----------------------------
(PID.TID 0000.0001) // =======================================================
(PID.TID 0000.0001) // END OF FIELD                                          =
(PID.TID 0000.0001) // =======================================================
(PID.TID 0000.0001) 
(PID.TID 0000.0001) // CG2D normalisation factor =          0.1605802643082003777720221E-04
(PID.TID 0000.0001) 
(PID.TID 0000.0001)  PACKAGE_INIT: opening data.pkg
(PID.TID 0000.0001)  OPEN_COPY_DATA_FILE: opening file data.pkg
(PID.TID 0000.0001) // =======================================================
(PID.TID 0000.0001) // Parameter file "data.pkg"
(PID.TID 0000.0001) // =======================================================
(PID.TID 0000.0001) >#
(PID.TID 0000.0001) ># ********
(PID.TID 0000.0001) ># Packages
(PID.TID 0000.0001) ># ********
(PID.TID 0000.0001) > &PACKAGES
(PID.TID 0000.0001) > useGMRedi    = .FALSE.,
(PID.TID 0000.0001) > useKPP       = .TRUE.,
(PID.TID 0000.0001) > useECCO      = .TRUE.,
(PID.TID 0000.0001) > &
(PID.TID 0000.0001) 
(PID.TID 0000.0001)  PACKAGE_INIT: finished reading data.pkg
(PID.TID 0000.0001)  KPP_INIT: opening data.kpp
(PID.TID 0000.0001)  OPEN_COPY_DATA_FILE: opening file data.kpp
(PID.TID 0000.0001) // =======================================================
(PID.TID 0000.0001) // Parameter file "data.kpp"
(PID.TID 0000.0001) // =======================================================
(PID.TID 0000.0001) >
(PID.TID 0000.0001) >#
(PID.TID 0000.0001) ># **************
(PID.TID 0000.0001) ># KPP parameters
(PID.TID 0000.0001) ># **************
(PID.TID 0000.0001) > &KPP_PARM01
(PID.TID 0000.0001) > KPPmixingMaps   = .FALSE.,
(PID.TID 0000.0001) > KPPwriteState   = .TRUE.,
(PID.TID 0000.0001) > kpp_dumpFreq    = 864000.0
(PID.TID 0000.0001) > &
(PID.TID 0000.0001) 
(PID.TID 0000.0001)  KPP_INIT: finished reading data.kpp
(PID.TID 0000.0001) 
(PID.TID 0000.0001) // =======================================================
(PID.TID 0000.0001) // Calendar configuration >>> START <<<
(PID.TID 0000.0001) // =======================================================
(PID.TID 0000.0001) 
(PID.TID 0000.0001) Calendar version: 0.2.0
(PID.TID 0000.0001) 
(PID.TID 0000.0001) startTime =   /* Start time of the model integration [s] */
(PID.TID 0000.0001)                 0.000000000000000E+00
(PID.TID 0000.0001)     ;
(PID.TID 0000.0001) endTime =   /* End time of the model integration [s] */
(PID.TID 0000.0001)                 2.613600000000000E+06
(PID.TID 0000.0001)     ;
(PID.TID 0000.0001) deltatclock =   /* Time interval for a model forward step [s] */
(PID.TID 0000.0001)                 3.600000000000000E+03
(PID.TID 0000.0001)     ;
(PID.TID 0000.0001) usingGregorianCalendar =  /* Calendar Type: Gregorian Calendar */
(PID.TID 0000.0001)                   T
(PID.TID 0000.0001)     ;
(PID.TID 0000.0001) usingJulianCalendar =  /* Calendar Type: Julian Calendar */
(PID.TID 0000.0001)                   F
(PID.TID 0000.0001)     ;
(PID.TID 0000.0001) usingModelCalendar =  /* Calendar Type: Model Calendar */
(PID.TID 0000.0001)                   F
(PID.TID 0000.0001)     ;
(PID.TID 0000.0001) usingNoCalendar =  /* Calendar Type: No Calendar */
(PID.TID 0000.0001)                   F
(PID.TID 0000.0001)     ;
(PID.TID 0000.0001) modelstartdate (YYYYMMDD) =   /* Model start date YYYY-MM-DD  */
(PID.TID 0000.0001)                19920102
(PID.TID 0000.0001)     ;
(PID.TID 0000.0001) modelstartdate (HHMMSS) =   /* Model start date HH-MM-SS  */
(PID.TID 0000.0001)                  220000
(PID.TID 0000.0001)     ;
(PID.TID 0000.0001) modelenddate (YYYYMMDD) =   /* Model end date YYYY-MM-DD  */
(PID.TID 0000.0001)                19920202
(PID.TID 0000.0001)     ;
(PID.TID 0000.0001) modelenddate (HHMMSS) =   /* Model end date HH-MM-SS  */
(PID.TID 0000.0001)                   40000
(PID.TID 0000.0001)     ;
(PID.TID 0000.0001) intyears =   /* Number of calendar years affected by the integration  */
(PID.TID 0000.0001)                       1
(PID.TID 0000.0001)     ;
(PID.TID 0000.0001) intmonths =   /* Number of calendar months affected by the integration  */
(PID.TID 0000.0001)                       2
(PID.TID 0000.0001)     ;
(PID.TID 0000.0001) intdays =   /* Number of calendar days affected by the integration  */
(PID.TID 0000.0001)                      32
(PID.TID 0000.0001)     ;
(PID.TID 0000.0001) nIter0 =   /* Base timestep number  */
(PID.TID 0000.0001)                       0
(PID.TID 0000.0001)     ;
(PID.TID 0000.0001) nEndIter =   /* Final timestep number  */
(PID.TID 0000.0001)                     726
(PID.TID 0000.0001)     ;
(PID.TID 0000.0001) nTimeSteps =   /* Number of model timesteps  */
(PID.TID 0000.0001)                     726
(PID.TID 0000.0001)     ;
(PID.TID 0000.0001) 
(PID.TID 0000.0001) // =======================================================
(PID.TID 0000.0001) // Calendar configuration  >>> END <<<
(PID.TID 0000.0001) // =======================================================
(PID.TID 0000.0001) 
(PID.TID 0000.0001) 
(PID.TID 0000.0001)  exf_GetSSTClimLambda: Setting relaxation coefficient
(PID.TID 0000.0001)                        for the SST climatology.
(PID.TID 0000.0001) 
(PID.TID 0000.0001) 
(PID.TID 0000.0001)  exf_GetSSSClimLambda: Setting relaxation coefficient
(PID.TID 0000.0001)                        for the SSS climatology.
(PID.TID 0000.0001) 
(PID.TID 0000.0001) 
(PID.TID 0000.0001) // =======================================================
(PID.TID 0000.0001) // External forcing configuration >>> START <<<
(PID.TID 0000.0001) // =======================================================
(PID.TID 0000.0001) 
(PID.TID 0000.0001) External forcing version: 0.2.0
(PID.TID 0000.0001) Uses Calendar version:    0.2.0
(PID.TID 0000.0001) 
(PID.TID 0000.0001) // ALLOW_BULKFORMULAE:             NOT defined
(PID.TID 0000.0001) // ALLOW_CLIMTEMP_RELAXATION:      NOT defined
(PID.TID 0000.0001) // ALLOW_CLIMSALT_RELAXATION:      NOT defined
(PID.TID 0000.0001) // ALLOW_CLIMSST_RELAXATION:           defined
(PID.TID 0000.0001) // ALLOW_CLIMSSS_RELAXATION:           defined
(PID.TID 0000.0001) // ALLOW_KPP:                          defined
(PID.TID 0000.0001) 
(PID.TID 0000.0001)    Heat flux forcing starts at                  19920102 220000 THU.
(PID.TID 0000.0001)    Heat flux forcing period is                  00000000 120000
(PID.TID 0000.0001)    Heat flux forcing is read from file:
(PID.TID 0000.0001)    >>  kf_qnet  <<
(PID.TID 0000.0001) 
(PID.TID 0000.0001)    Salt flux forcing starts at                  19920102 220000 THU.
(PID.TID 0000.0001)    Salt flux forcing period is                  00000000 120000
(PID.TID 0000.0001)    Salt flux forcing is read from file:
(PID.TID 0000.0001)    >>  kf_empmr  <<
(PID.TID 0000.0001) 
(PID.TID 0000.0001)    Zonal wind stress forcing starts at          19920102 220000 THU.
(PID.TID 0000.0001)    Zonal wind stress forcing period is          00000000 120000
(PID.TID 0000.0001)    Zonal wind stress forcing is read from file:
(PID.TID 0000.0001)    >>  kf_fu  <<
(PID.TID 0000.0001) 
(PID.TID 0000.0001)    Meridional wind stress forcing starts at     19920102 220000 THU.
(PID.TID 0000.0001)    Meridional wind stress forcing period is     00000000 120000
(PID.TID 0000.0001)    Meridional wind stress forcing is read from file:
(PID.TID 0000.0001)    >>  kf_fv  <<
(PID.TID 0000.0001) 
(PID.TID 0000.0001)    Short wave rad. flux forcing starts at       19920102 220000 THU.
(PID.TID 0000.0001)    Short wave rad. flux forcing period is       00000000 120000
(PID.TID 0000.0001)    Short wave rad. flux forcing is read from file:
(PID.TID 0000.0001)    >>  kf_sw  <<
(PID.TID 0000.0001) 
(PID.TID 0000.0001)    Climatological SST is read from file:
(PID.TID 0000.0001)    >>  kf_sst  <<
(PID.TID 0000.0001) 
(PID.TID 0000.0001)    Climatological SSS is read from file:
(PID.TID 0000.0001)    >>  kf_sss  <<
(PID.TID 0000.0001) 
(PID.TID 0000.0001) // =======================================================
(PID.TID 0000.0001) // External forcing configuration  >>> END <<<
(PID.TID 0000.0001) // =======================================================
(PID.TID 0000.0001) 
(PID.TID 0000.0001) 
(PID.TID 0000.0001)  ctrl_init: Initializing temperature and salinity
(PID.TID 0000.0001)                    part of the control vector.
(PID.TID 0000.0001)                    The initial surface fluxes are set to zero.
(PID.TID 0000.0001) 
 ctrl_init: no. of control variables:  6
 ctrl_init: control vector length:     11864
(PID.TID 0000.0001) 
(PID.TID 0000.0001) // =======================================================
(PID.TID 0000.0001) // ECCO control vector configuration  >>> START <<<
(PID.TID 0000.0001) // =======================================================
(PID.TID 0000.0001) 
(PID.TID 0000.0001)  Total number of ocean points per tile:
(PID.TID 0000.0001)  --------------------------------------
(PID.TID 0000.0001) 
(PID.TID 0000.0001)  snx*sny*nr =     7360
(PID.TID 0000.0001) 
(PID.TID 0000.0001)  Number of ocean points per tile:
(PID.TID 0000.0001)  --------------------------------
(PID.TID 0000.0001)  bi,bj,#(c/s/w): 0001 0001 003982 003567 003655
(PID.TID 0000.0001) 
(PID.TID 0000.0001)  Initial state temperature contribution:
(PID.TID 0000.0001)  Control variable index:    0101
(PID.TID 0000.0001) 
(PID.TID 0000.0001)  Initial state salinity contribution:
(PID.TID 0000.0001)  Control variable index:    0102
(PID.TID 0000.0001) 
(PID.TID 0000.0001)  Heat flux contribution:
(PID.TID 0000.0001)  Control variable index:    0103
(PID.TID 0000.0001) 
(PID.TID 0000.0001)    Heat flux contribution starts at:            19920102 220000 THU.
(PID.TID 0000.0001)    Heat flux contribution period is:            00000010 000000
(PID.TID 0000.0001)    Heat flux contribution is read from file:
(PID.TID 0000.0001)    >>  xx_hfl  <<
(PID.TID 0000.0001) 
(PID.TID 0000.0001)  Salt flux contribution:
(PID.TID 0000.0001)  Control varibale index:    0104
(PID.TID 0000.0001) 
(PID.TID 0000.0001)    Salt flux contribution starts at:            19920102 220000 THU.
(PID.TID 0000.0001)    Salt flux contribution period is:            00000010 000000
(PID.TID 0000.0001)    Salt flux contribution is read from file:
(PID.TID 0000.0001)    >>  xx_sfl  <<
(PID.TID 0000.0001) 
(PID.TID 0000.0001)  Zonal wind stress contribution:
(PID.TID 0000.0001)  Control variable index:    0105
(PID.TID 0000.0001) 
(PID.TID 0000.0001)    Zonal wind stress contribution starts at:    19920102 220000 THU.
(PID.TID 0000.0001)    Zonal wind stress contribution period is:    00000010 000000
(PID.TID 0000.0001)    Zonal wind stress contribution is read from file:
(PID.TID 0000.0001)    >>  xx_tauu  <<
(PID.TID 0000.0001) 
(PID.TID 0000.0001)  Meridional wind stress contribution:
(PID.TID 0000.0001)  Control variable index:    0106
(PID.TID 0000.0001) 
(PID.TID 0000.0001)    Merid. wind stress contribution starts at:   19920102 220000 THU.
(PID.TID 0000.0001)    Merid. wind stress contribution period is:   00000010 000000
(PID.TID 0000.0001)    Merid. wind stress contribution is read from file:
(PID.TID 0000.0001)    >>  xx_tauv  <<
(PID.TID 0000.0001) 
(PID.TID 0000.0001) // =======================================================
(PID.TID 0000.0001) // ECCO control vector configuration  >>> END <<<
(PID.TID 0000.0001) // =======================================================
(PID.TID 0000.0001) 
(PID.TID 0000.0001) 
(PID.TID 0000.0001) // =======================================================
(PID.TID 0000.0001) // ECCO cost function configuration  >>> START <<<
(PID.TID 0000.0001) // =======================================================
(PID.TID 0000.0001) 
(PID.TID 0000.0001)   Multipliers for the indivdual cost function contributions:
(PID.TID 0000.0001) 
(PID.TID 0000.0001)   Net heat flux:                 0.100E+01
(PID.TID 0000.0001)   Salt flux:                     0.100E+01
(PID.TID 0000.0001)   Zonal wind stress:             0.100E+01
(PID.TID 0000.0001)   Meridional wind stress:        0.100E+01
(PID.TID 0000.0001)   Mean sea surface height:       0.100E+01
(PID.TID 0000.0001)   Sea surface height anomalies:  0.100E+01
(PID.TID 0000.0001)   Temperature (3d):              0.100E+01
(PID.TID 0000.0001)   Salinity (3d):                 0.100E+01
(PID.TID 0000.0001)   Sea surface temperature:       0.100E+01
(PID.TID 0000.0001)   CTD temperature:               0.000E+00
(PID.TID 0000.0001)   CTD salinity:                  0.000E+00
(PID.TID 0000.0001) 
(PID.TID 0000.0001)   Temperature data are read from: PH_Lev.ptmp_020_016_23
(PID.TID 0000.0001)   Salinity data are read from:    PH_Lev.salt_020_016_23
(PID.TID 0000.0001)   T/P data not used.
(PID.TID 0000.0001) 
(PID.TID 0000.0001)   ERS data not used.
(PID.TID 0000.0001)   SST data are read from:         PH_SST_fields_020_016_23
(PID.TID 0000.0001)   SST start date is:                19920102       0
(PID.TID 0000.0001)   CTD temperature data are read from:
(PID.TID 0000.0001)   CTD salinity data are read from:
(PID.TID 0000.0001)   Error "data" file:              data.err
(PID.TID 0000.0001)   Heat flux error file:           PH_totflux.err_020_016_23
(PID.TID 0000.0001)   Salt flux error file:           PH_pme.err_020_016_23
(PID.TID 0000.0001)   Zonal wind stress error file:   PH_ustress.err_020_016_23
(PID.TID 0000.0001)   Merid. wind stress error file:  PH_vstress.err_020_016_23
(PID.TID 0000.0001)   SSH error file:                 PH_ssh.err_020_016_23
(PID.TID 0000.0001)   Geoid error file:               PH_geoid.err_020_016_23
(PID.TID 0000.0001)   Geoid error covariance file:    egm96.pinv
(PID.TID 0000.0001) 
(PID.TID 0000.0001) // =======================================================
(PID.TID 0000.0001) // Optimization configuration  >>> END <<<
(PID.TID 0000.0001) // =======================================================
(PID.TID 0000.0001) 
(PID.TID 0000.0001) 
(PID.TID 0000.0001) // =======================================================
(PID.TID 0000.0001) // ECCO configuration >>> START <<<
(PID.TID 0000.0001) // =======================================================
(PID.TID 0000.0001) 
(PID.TID 0000.0001) ECCO version:              0.1.0
(PID.TID 0000.0001) 
(PID.TID 0000.0001) Packages used:
(PID.TID 0000.0001) Calendar version:          0.1.4
(PID.TID 0000.0001) External Forcing version:  0.1.1
(PID.TID 0000.0001) Adjoint support version:   0.1.0
(PID.TID 0000.0001) Optimization version:      2.1.0
(PID.TID 0000.0001) 
(PID.TID 0000.0001) // ALLOW_ECCO_FORWARD_RUN:             defined
(PID.TID 0000.0001) // ALLOW_ECCO_DIAGNOSTIC_RUN:      NOT defined
(PID.TID 0000.0001) // ALLOW_ECCO_ADJOINT_RUN:         NOT defined
(PID.TID 0000.0001) // ALLOW_ECCO_GRADIENT_CHECK:      NOT defined
(PID.TID 0000.0001) // ALLOW_ECCO_OPTIMIZATION:        NOT defined
(PID.TID 0000.0001) // USE_NO_DYNAMICS:                NOT defined
(PID.TID 0000.0001) // USE_YMDS_TREE:                  NOT defined
(PID.TID 0000.0001) // USE_STEPPING_CALL:                  defined
(PID.TID 0000.0001) // USE_NONDIMENSIONAL_CONTROL_IO:  NOT defined
(PID.TID 0000.0001) // _GET_HFLUX_CONTROL(a,b,c):          defined
(PID.TID 0000.0001) // _GET_SFLUX_CONTROL(a,b,c):          defined
(PID.TID 0000.0001) // _GET_USTRESS_CONTROL(a,b,c):        defined
(PID.TID 0000.0001) // _GET_VSTRESS_CONTROL(a,b,c):        defined
(PID.TID 0000.0001) // _GET_SWFLUX_CONTROL(a,b,c):         defined
(PID.TID 0000.0001) // _GET_LWFLUX_CONTROL(a,b,c):         defined
(PID.TID 0000.0001) // USE_EGM96_ERROR_COV:            NOT defined
(PID.TID 0000.0001) // USE_READ_EGM_DATA:              NOT defined
(PID.TID 0000.0001) // USE_NSCAT_DATA:                 NOT defined
(PID.TID 0000.0001) // USE_HFLUX_COST_CONTRIBUTION:    NOT defined
(PID.TID 0000.0001) // USE_SFLUX_COST_CONTRIBUTION:    NOT defined
(PID.TID 0000.0001) // USE_USTRESS_COST_CONTRIBUTION:  NOT defined
(PID.TID 0000.0001) // USE_VSTRESS_COST_CONTRIBUTION:  NOT defined
(PID.TID 0000.0001) // USE_THETA_COST_CONTRIBUTION:    NOT defined
(PID.TID 0000.0001) // USE_SST_COST_CONTRIBUTION:      NOT defined
(PID.TID 0000.0001) // USE_SALT_COST_CONTRIBUTION:     NOT defined
(PID.TID 0000.0001) // USE_SSH_COST_CONTRIBUTION:      NOT defined
(PID.TID 0000.0001) // APPLY_HFLUX_COST_CONTRIBUTION:  NOT defined
(PID.TID 0000.0001) // APPLY_SFLUX_COST_CONTRIBUTION:  NOT defined
(PID.TID 0000.0001) // APPLY_USTRESS_COST_CONTRIBUTION: NOT defined
(PID.TID 0000.0001) // APPLY_VSTRESS_COST_CONTRIBUTION: NOT defined
(PID.TID 0000.0001) // APPLY_THETA_COST_CONTRIBUTION:  NOT defined
(PID.TID 0000.0001) // APPLY_SALT_COST_CONTRIBUTION:   NOT defined
(PID.TID 0000.0001) // APPLY_SST_COST_CONTRIBUTION:    NOT defined
(PID.TID 0000.0001) // APPLY_SSH_COST_CONTRIBUTION:    NOT defined
(PID.TID 0000.0001) // USE_SPH_PROJECTION:             NOT defined
(PID.TID 0000.0001) // USE_THETA0_CONTROL:                 defined
(PID.TID 0000.0001) // USE_SALT0_CONTROL:                  defined
(PID.TID 0000.0001) // USE_HFLUX_CONTROL:                  defined
(PID.TID 0000.0001) // USE_SFLUX_CONTROL:                  defined
(PID.TID 0000.0001) // USE_USTRESS_CONTROL:                defined
(PID.TID 0000.0001) // USE_VSTRESS_CONTROL:                defined
(PID.TID 0000.0001) // USE_SWFLUX_CONTROL:             NOT defined
(PID.TID 0000.0001) // USE_LWFLUX_CONTROL:             NOT defined
(PID.TID 0000.0001) // USE_ATEMP_CONTROL:              NOT defined
(PID.TID 0000.0001) // USE_AQH_CONTROL:                NOT defined
(PID.TID 0000.0001) // USE_UWIND_CONTROL:              NOT defined
(PID.TID 0000.0001) // USE_VWIND_CONTROL:              NOT defined
(PID.TID 0000.0001) // USE_PRECIP_CONTROL:             NOT defined
(PID.TID 0000.0001) // ALLOW_AUTODIFF_TAMC:            NOT defined
(PID.TID 0000.0001) // USE_TAMC_CHECKPOINTING:         NOT defined
(PID.TID 0000.0001) 
(PID.TID 0000.0001)  Experiment name:  MIT_CE_000
(PID.TID 0000.0001) 
(PID.TID 0000.0001)  Generation of adjoint code for the ECCO setup is not enabled
(PID.TID 0000.0001) 
(PID.TID 0000.0001) // =======================================================
(PID.TID 0000.0001) // ECCO configuration  >>> END <<<
(PID.TID 0000.0001) // =======================================================
(PID.TID 0000.0001) 
(PID.TID 0000.0001) KPP_CHECK: #define ALLOW_KPP
(PID.TID 0000.0001) // =======================================================
(PID.TID 0000.0001) // Model configuration
(PID.TID 0000.0001) // =======================================================
(PID.TID 0000.0001) //
(PID.TID 0000.0001) // "Physical" paramters ( PARM01 in namelist )
(PID.TID 0000.0001) //
(PID.TID 0000.0001) tRef =   /* Reference temperature profile ( oC or oK ) */
(PID.TID 0000.0001)                 2.400000000000000E+01,      /* K =  1 */
(PID.TID 0000.0001)                 2.300000000000000E+01,      /* K =  2 */
(PID.TID 0000.0001)                 2.200000000000000E+01,      /* K =  3 */
(PID.TID 0000.0001)                 2.100000000000000E+01,      /* K =  4 */
(PID.TID 0000.0001)                 2.000000000000000E+01,      /* K =  5 */
(PID.TID 0000.0001)                 1.900000000000000E+01,      /* K =  6 */
(PID.TID 0000.0001)                 1.800000000000000E+01,      /* K =  7 */
(PID.TID 0000.0001)                 1.700000000000000E+01,      /* K =  8 */
(PID.TID 0000.0001)                 1.600000000000000E+01,      /* K =  9 */
(PID.TID 0000.0001)                 1.500000000000000E+01,      /* K = 10 */
(PID.TID 0000.0001)                 1.400000000000000E+01,      /* K = 11 */
(PID.TID 0000.0001)                 1.300000000000000E+01,      /* K = 12 */
(PID.TID 0000.0001)                 1.200000000000000E+01,      /* K = 13 */
(PID.TID 0000.0001)                 1.100000000000000E+01,      /* K = 14 */
(PID.TID 0000.0001)                 1.000000000000000E+01,      /* K = 15 */
(PID.TID 0000.0001)                 9.000000000000000E+00,      /* K = 16 */
(PID.TID 0000.0001)                 8.000000000000000E+00,      /* K = 17 */
(PID.TID 0000.0001)                 7.000000000000000E+00,      /* K = 18 */
(PID.TID 0000.0001)                 6.000000000000000E+00,      /* K = 19 */
(PID.TID 0000.0001)                 5.000000000000000E+00,      /* K = 20 */
(PID.TID 0000.0001)                 4.000000000000000E+00,      /* K = 21 */
(PID.TID 0000.0001)                 3.000000000000000E+00,      /* K = 22 */
(PID.TID 0000.0001)                 2.000000000000000E+00       /* K = 23 */
(PID.TID 0000.0001)     ;
(PID.TID 0000.0001) sRef =   /* Reference salinity profile ( ppt ) */
(PID.TID 0000.0001)                 3.465000000000000E+01,      /* K =  1 */
(PID.TID 0000.0001)                 3.475000000000000E+01,      /* K =  2 */
(PID.TID 0000.0001)                 3.482000000000000E+01,      /* K =  3 */
(PID.TID 0000.0001)                 3.487000000000000E+01,      /* K =  4 */
(PID.TID 0000.0001)     2 @  3.490000000000000E+01,             /* K =  5:  6 */
(PID.TID 0000.0001)                 3.486000000000000E+01,      /* K =  7 */
(PID.TID 0000.0001)                 3.478000000000000E+01,      /* K =  8 */
(PID.TID 0000.0001)                 3.469000000000000E+01,      /* K =  9 */
(PID.TID 0000.0001)                 3.460000000000000E+01,      /* K = 10 */
(PID.TID 0000.0001)                 3.458000000000000E+01,      /* K = 11 */
(PID.TID 0000.0001)                 3.462000000000000E+01,      /* K = 12 */
(PID.TID 0000.0001)                 3.468000000000000E+01,      /* K = 13 */
(PID.TID 0000.0001)                 3.472000000000000E+01,      /* K = 14 */
(PID.TID 0000.0001)                 3.473000000000000E+01,      /* K = 15 */
(PID.TID 0000.0001)                 3.474000000000000E+01,      /* K = 16 */
(PID.TID 0000.0001)     2 @  3.473000000000000E+01,             /* K = 17: 18 */
(PID.TID 0000.0001)     2 @  3.472000000000000E+01,             /* K = 19: 20 */
(PID.TID 0000.0001)                 3.471000000000000E+01,      /* K = 21 */
(PID.TID 0000.0001)                 3.470000000000000E+01,      /* K = 22 */
(PID.TID 0000.0001)                 3.469000000000000E+01       /* K = 23 */
(PID.TID 0000.0001)     ;
(PID.TID 0000.0001) viscAh =   /* Lateral eddy viscosity ( m^2/s ) */
(PID.TID 0000.0001)                 5.000000000000000E+04
(PID.TID 0000.0001)     ;
(PID.TID 0000.0001) viscAh =   /* Lateral biharmonic viscosity ( m^4/s ) */
(PID.TID 0000.0001)                 5.000000000000000E+12
(PID.TID 0000.0001)     ;
(PID.TID 0000.0001) no_slip_sides =  /* Viscous BCs: No-slip sides */
(PID.TID 0000.0001)                   F
(PID.TID 0000.0001)     ;
(PID.TID 0000.0001) viscAz =   /* Vertical eddy viscosity ( m^2/s ) */
(PID.TID 0000.0001)                 1.000000000000000E-03
(PID.TID 0000.0001)     ;
(PID.TID 0000.0001) viscAr =   /* Vertical eddy viscosity ( units of r^2/s ) */
(PID.TID 0000.0001)                 1.000000000000000E-03
(PID.TID 0000.0001)     ;
(PID.TID 0000.0001) diffKhT =   /* Laplacian diffusion of heat laterally ( m^2/s ) */
(PID.TID 0000.0001)                 1.000000000000000E+03
(PID.TID 0000.0001)     ;
(PID.TID 0000.0001) diffK4T =   /* Bihaarmonic diffusion of heat laterally ( m^4/s ) */
(PID.TID 0000.0001)                 0.000000000000000E+00
(PID.TID 0000.0001)     ;
(PID.TID 0000.0001) diffKzT =   /* Laplacian diffusion of heat vertically ( m^2/s ) */
(PID.TID 0000.0001)                 1.000000000000000E-05
(PID.TID 0000.0001)     ;
(PID.TID 0000.0001) diffKrT =   /* Laplacian diffusion of heat vertically ( m^2/s ) */
(PID.TID 0000.0001)                 1.000000000000000E-05
(PID.TID 0000.0001)     ;
(PID.TID 0000.0001) diffKhS =   /* Laplacian diffusion of salt laterally ( m^2/s ) */
(PID.TID 0000.0001)                 1.000000000000000E+03
(PID.TID 0000.0001)     ;
(PID.TID 0000.0001) diffK4S =   /* Bihaarmonic diffusion of salt laterally ( m^4/s ) */
(PID.TID 0000.0001)                 0.000000000000000E+00
(PID.TID 0000.0001)     ;
(PID.TID 0000.0001) diffKzS =   /* Laplacian diffusion of salt vertically ( m^2/s ) */
(PID.TID 0000.0001)                 1.000000000000000E-05
(PID.TID 0000.0001)     ;
(PID.TID 0000.0001) diffKrS =   /* Laplacian diffusion of salt vertically ( m^2/s ) */
(PID.TID 0000.0001)                 1.000000000000000E-05
(PID.TID 0000.0001)     ;
(PID.TID 0000.0001) tAlpha =   /* Linear EOS thermal expansion coefficient ( 1/degree ) */
(PID.TID 0000.0001)                 2.000000000000000E-04
(PID.TID 0000.0001)     ;
(PID.TID 0000.0001) sBeta =   /* Linear EOS haline contraction coefficient ( 1/ppt ) */
(PID.TID 0000.0001)                 7.400000000000000E-04
(PID.TID 0000.0001)     ;
(PID.TID 0000.0001)   1  13.499  32.600  24.480  -0.201   0.771  -0.005  -0.002   0.000   0.000   0.000   0.000   0.000
(PID.TID 0000.0001)   2  13.498  32.600  24.525  -0.202   0.771  -0.005  -0.002   0.000   0.000   0.000   0.000   0.000
(PID.TID 0000.0001)   3  13.496  32.600  24.581  -0.202   0.771  -0.005  -0.002   0.000   0.000   0.000   0.000   0.000
(PID.TID 0000.0001)   4  13.494  32.600  24.660  -0.202   0.771  -0.005  -0.002   0.000   0.000   0.000   0.000   0.000
(PID.TID 0000.0001)   5  13.491  32.600  24.750  -0.203   0.771  -0.005  -0.002   0.000   0.000   0.000   0.000   0.000
(PID.TID 0000.0001)   6  13.488  32.600  24.851  -0.203   0.770  -0.005  -0.002   0.000   0.000   0.000   0.000   0.000
(PID.TID 0000.0001)   7  13.484  32.600  24.985  -0.204   0.770  -0.005  -0.002   0.000   0.000   0.000   0.000   0.000
(PID.TID 0000.0001)   8  13.478  32.600  25.176  -0.204   0.770  -0.005  -0.002   0.000   0.000   0.000   0.000   0.000
(PID.TID 0000.0001)   9  13.469  32.600  25.456  -0.205   0.769  -0.005  -0.002   0.000   0.000   0.000   0.000   0.000
(PID.TID 0000.0001)  10   8.467  35.150  28.748  -0.163   0.781  -0.005  -0.002   0.001   0.000   0.000   0.000   0.000
(PID.TID 0000.0001)  11   8.454  35.150  29.315  -0.166   0.780  -0.005  -0.002   0.001   0.000   0.000   0.000   0.000
(PID.TID 0000.0001)  12   5.946  34.900  30.300  -0.143   0.785  -0.006  -0.002   0.001   0.000   0.000   0.000   0.000
(PID.TID 0000.0001)  13   4.433  34.900  31.591  -0.132   0.786  -0.006  -0.003   0.000   0.000   0.000   0.000   0.000
(PID.TID 0000.0001)  14   3.909  34.750  32.966  -0.134   0.785  -0.006  -0.003   0.000   0.000   0.000   0.000   0.000
(PID.TID 0000.0001)  15   1.899  34.800  35.002  -0.121   0.787  -0.006  -0.003   0.000   0.000   0.000   0.000   0.000
(PID.TID 0000.0001)  16   1.372  34.750  36.991  -0.127   0.785  -0.006  -0.003  -0.001   0.000   0.000   0.000   0.000
(PID.TID 0000.0001)  17   1.332  34.800  39.171  -0.140   0.782  -0.006  -0.003  -0.001   0.000   0.000   0.000   0.000
(PID.TID 0000.0001)  18   0.797  34.800  41.472  -0.147   0.779  -0.006  -0.003  -0.001   0.000   0.000   0.000   0.000
(PID.TID 0000.0001)  19   0.749  34.800  43.682  -0.160   0.775  -0.005  -0.002  -0.002   0.000   0.000   0.000   0.000
(PID.TID 0000.0001)  20   0.214  34.750  45.912  -0.168   0.772  -0.005  -0.002  -0.002   0.000   0.000   0.000   0.000
(PID.TID 0000.0001)  21   0.160  34.750  48.080  -0.181   0.768  -0.005  -0.002  -0.003   0.000   0.000   0.000   0.000
(PID.TID 0000.0001)  22   0.584  34.750  50.131  -0.197   0.763  -0.005  -0.002  -0.001   0.000   0.000   0.000   0.000
(PID.TID 0000.0001)  23   0.522  34.750  52.248  -0.209   0.760  -0.005  -0.002  -0.002   0.000   0.000   0.000   0.000
(PID.TID 0000.0001) rhonil =   /* Reference density ( kg/m^3 ) */
(PID.TID 0000.0001)                 9.998000000000000E+02
(PID.TID 0000.0001)     ;
(PID.TID 0000.0001) rhoConst =   /* Reference density ( kg/m^3 ) */
(PID.TID 0000.0001)                 9.998000000000000E+02
(PID.TID 0000.0001)     ;
(PID.TID 0000.0001) gravity =   /* Gravitational acceleration ( m/s^2 ) */
(PID.TID 0000.0001)                 9.810000000000000E+00
(PID.TID 0000.0001)     ;
(PID.TID 0000.0001) gBaro =   /* Barotropic gravity ( m/s^2 ) */
(PID.TID 0000.0001)                 9.810000000000000E+00
(PID.TID 0000.0001)     ;
(PID.TID 0000.0001) f0 =   /* Reference coriolis parameter ( 1/s ) */
(PID.TID 0000.0001)                 1.000000000000000E-04
(PID.TID 0000.0001)     ;
(PID.TID 0000.0001) beta =   /* Beta ( 1/(m.s) ) */
(PID.TID 0000.0001)                 9.999999999999999E-12
(PID.TID 0000.0001)     ;
(PID.TID 0000.0001) freeSurfFac =   /* Implcit free surface factor */
(PID.TID 0000.0001)                 1.000000000000000E+00
(PID.TID 0000.0001)     ;
(PID.TID 0000.0001) implicitFreeSurface =   /* Implicit free surface on/off flag */
(PID.TID 0000.0001)                   T
(PID.TID 0000.0001)     ;
(PID.TID 0000.0001) rigidLid =   /* Rigid lid on/off flag */
(PID.TID 0000.0001)                   F
(PID.TID 0000.0001)     ;
(PID.TID 0000.0001) momStepping =  /* Momentum equation on/off flag */
(PID.TID 0000.0001)                   T
(PID.TID 0000.0001)     ;
(PID.TID 0000.0001) momAdvection =  /* Momentum advection on/off flag */
(PID.TID 0000.0001)                   T
(PID.TID 0000.0001)     ;
(PID.TID 0000.0001) momViscosity =  /* Momentum viscosity on/off flag */
(PID.TID 0000.0001)                   T
(PID.TID 0000.0001)     ;
(PID.TID 0000.0001) useCoriolis =  /* Coriolis on/off flag */
(PID.TID 0000.0001)                   T
(PID.TID 0000.0001)     ;
(PID.TID 0000.0001) momForcing =  /* Momentum forcing on/off flag */
(PID.TID 0000.0001)                   T
(PID.TID 0000.0001)     ;
(PID.TID 0000.0001) momPressureForcing =  /* Momentum pressure term on/off flag */
(PID.TID 0000.0001)                   T
(PID.TID 0000.0001)     ;
(PID.TID 0000.0001) tempStepping =  /* Temperature equation on/off flag */
(PID.TID 0000.0001)                   T
(PID.TID 0000.0001)     ;
(PID.TID 0000.0001) openBoundaries =  /* OpenBoundaries on/off flag */
(PID.TID 0000.0001)                   F
(PID.TID 0000.0001)     ;
(PID.TID 0000.0001) nonHydrostatic =  /* Non-Hydrostatic on/off flag */
(PID.TID 0000.0001)                   F
(PID.TID 0000.0001)     ;
(PID.TID 0000.0001) //
(PID.TID 0000.0001) // Elliptic solver(s) paramters ( PARM02 in namelist )
(PID.TID 0000.0001) //
(PID.TID 0000.0001) cg2dMaxIters =   /* Upper limit on 2d con. grad iterations  */
(PID.TID 0000.0001)                    1000
(PID.TID 0000.0001)     ;
(PID.TID 0000.0001) cg2dChkResFreq =   /* 2d con. grad convergence test frequency */
(PID.TID 0000.0001)                       1
(PID.TID 0000.0001)     ;
(PID.TID 0000.0001) cg2dTargetResidual =   /* 2d con. grad target residual  */
(PID.TID 0000.0001)                 1.000000000000000E-13
(PID.TID 0000.0001)     ;
(PID.TID 0000.0001) //
(PID.TID 0000.0001) // Time stepping paramters ( PARM03 in namelist )
(PID.TID 0000.0001) //
(PID.TID 0000.0001) nIter0 =   /* Base timestep number  */
(PID.TID 0000.0001)                       0
(PID.TID 0000.0001)     ;
(PID.TID 0000.0001) nTimeSteps =   /* Number of timesteps */
(PID.TID 0000.0001)                     726
(PID.TID 0000.0001)     ;
(PID.TID 0000.0001) deltatTmom =   /* Momentum equation timestep ( s ) */
(PID.TID 0000.0001)                 3.600000000000000E+03
(PID.TID 0000.0001)     ;
(PID.TID 0000.0001) deltatTtracer =   /* Tracer equation timestep ( s ) */
(PID.TID 0000.0001)                 3.600000000000000E+03
(PID.TID 0000.0001)     ;
(PID.TID 0000.0001) deltatTClock  =   /* Model clock timestep ( s ) */
(PID.TID 0000.0001)                 3.600000000000000E+03
(PID.TID 0000.0001)     ;
(PID.TID 0000.0001) cAdjFreq =   /* Convective adjustment interval ( s ) */
(PID.TID 0000.0001)                 0.000000000000000E+00
(PID.TID 0000.0001)     ;
(PID.TID 0000.0001) abeps =   /* Adams-Bashforth stabilizing weight */
(PID.TID 0000.0001)                 1.000000000000000E-01
(PID.TID 0000.0001)     ;
(PID.TID 0000.0001) tauCD =   /* CD coupling time-scale ( s ) */
(PID.TID 0000.0001)                 1.728000000000000E+05
(PID.TID 0000.0001)     ;
(PID.TID 0000.0001) rCD =   /* Normalised CD coupling parameter */
(PID.TID 0000.0001)                 9.791666666666666E-01
(PID.TID 0000.0001)     ;
(PID.TID 0000.0001) startTime =   /* Run start time ( s ). */
(PID.TID 0000.0001)                 0.000000000000000E+00
(PID.TID 0000.0001)     ;
(PID.TID 0000.0001) endTime =   /* Integration ending time ( s ). */
(PID.TID 0000.0001)                 2.613600000000000E+06
(PID.TID 0000.0001)     ;
(PID.TID 0000.0001) pChkPtFreq =   /* Permanent restart/checkpoint file interval ( s ). */
(PID.TID 0000.0001)                 0.000000000000000E+00
(PID.TID 0000.0001)     ;
(PID.TID 0000.0001) chkPtFreq =   /* Rolling restart/checkpoint file interval ( s ). */
(PID.TID 0000.0001)                 0.000000000000000E+00
(PID.TID 0000.0001)     ;
(PID.TID 0000.0001) dumpFreq =   /* Model state write out interval ( s ). */
(PID.TID 0000.0001)                 8.640000000000000E+05
(PID.TID 0000.0001)     ;
(PID.TID 0000.0001) //
(PID.TID 0000.0001) // Gridding paramters ( PARM04 in namelist )
(PID.TID 0000.0001) //
(PID.TID 0000.0001) usingCartesianGrid =   /* Cartesian coordinates flag ( True / False ) */
(PID.TID 0000.0001)                   F
(PID.TID 0000.0001)     ;
(PID.TID 0000.0001) usingSphericalPolarGrid =   /* Spherical coordinates flag ( True / False ) */
(PID.TID 0000.0001)                   T
(PID.TID 0000.0001)     ;
(PID.TID 0000.0001) delZ =    /* W spacing ( m ) */
(PID.TID 0000.0001)     2 @  1.000000000000000E+01,             /* K =  1:  2 */
(PID.TID 0000.0001)                 1.500000000000000E+01,      /* K =  3 */
(PID.TID 0000.0001)     2 @  2.000000000000000E+01,             /* K =  4:  5 */
(PID.TID 0000.0001)                 2.500000000000000E+01,      /* K =  6 */
(PID.TID 0000.0001)                 3.500000000000000E+01,      /* K =  7 */
(PID.TID 0000.0001)                 5.000000000000000E+01,      /* K =  8 */
(PID.TID 0000.0001)                 7.500000000000000E+01,      /* K =  9 */
(PID.TID 0000.0001)                 1.000000000000000E+02,      /* K = 10 */
(PID.TID 0000.0001)                 1.500000000000000E+02,      /* K = 11 */
(PID.TID 0000.0001)                 2.000000000000000E+02,      /* K = 12 */
(PID.TID 0000.0001)                 2.750000000000000E+02,      /* K = 13 */
(PID.TID 0000.0001)                 3.500000000000000E+02,      /* K = 14 */
(PID.TID 0000.0001)                 4.150000000000000E+02,      /* K = 15 */
(PID.TID 0000.0001)                 4.500000000000000E+02,      /* K = 16 */
(PID.TID 0000.0001)     7 @  5.000000000000000E+02              /* K = 17: 23 */
(PID.TID 0000.0001)     ;
(PID.TID 0000.0001) delP =    /* W spacing ( Pa ) */
(PID.TID 0000.0001)    23 @  1.234567000000000E+05              /* K =  1: 23 */
(PID.TID 0000.0001)     ;
(PID.TID 0000.0001) delR =    /* W spacing ( units of r ) */
(PID.TID 0000.0001)     2 @  1.000000000000000E+01,             /* K =  1:  2 */
(PID.TID 0000.0001)                 1.500000000000000E+01,      /* K =  3 */
(PID.TID 0000.0001)     2 @  2.000000000000000E+01,             /* K =  4:  5 */
(PID.TID 0000.0001)                 2.500000000000000E+01,      /* K =  6 */
(PID.TID 0000.0001)                 3.500000000000000E+01,      /* K =  7 */
(PID.TID 0000.0001)                 5.000000000000000E+01,      /* K =  8 */
(PID.TID 0000.0001)                 7.500000000000000E+01,      /* K =  9 */
(PID.TID 0000.0001)                 1.000000000000000E+02,      /* K = 10 */
(PID.TID 0000.0001)                 1.500000000000000E+02,      /* K = 11 */
(PID.TID 0000.0001)                 2.000000000000000E+02,      /* K = 12 */
(PID.TID 0000.0001)                 2.750000000000000E+02,      /* K = 13 */
(PID.TID 0000.0001)                 3.500000000000000E+02,      /* K = 14 */
(PID.TID 0000.0001)                 4.150000000000000E+02,      /* K = 15 */
(PID.TID 0000.0001)                 4.500000000000000E+02,      /* K = 16 */
(PID.TID 0000.0001)     7 @  5.000000000000000E+02              /* K = 17: 23 */
(PID.TID 0000.0001)     ;
(PID.TID 0000.0001) delX =    /* U spacing ( m - cartesian, degrees - spherical ) */
(PID.TID 0000.0001)    20 @  2.000000000000000E+00              /* I =  1: 20 */
(PID.TID 0000.0001)     ;
(PID.TID 0000.0001) delY =    /* V spacing ( m - cartesian, degrees - spherical ) */
(PID.TID 0000.0001)    16 @  2.000000000000000E+00              /* J =  1: 16 */
(PID.TID 0000.0001)     ;
(PID.TID 0000.0001) phiMin =    /* South edge (ignored - cartesian, degrees - spherical ) */
(PID.TID 0000.0001)                 1.000000000000000E+01
(PID.TID 0000.0001)     ;
(PID.TID 0000.0001) thetaMin =    /* West edge ( ignored - cartesian, degrees - spherical ) */
(PID.TID 0000.0001)                -4.200000000000000E+01
(PID.TID 0000.0001)     ;
(PID.TID 0000.0001) rSphere =    /* Radius ( ignored - cartesian, m - spherical ) */
(PID.TID 0000.0001)                 6.370000000000000E+06
(PID.TID 0000.0001)     ;
(PID.TID 0000.0001) xcoord =    /* P-point X coord ( m - cartesian, degrees - spherical ) */
(PID.TID 0000.0001)                -4.100000000000000E+01,      /* I =  1 */
(PID.TID 0000.0001)                -3.900000000000000E+01,      /* I =  2 */
(PID.TID 0000.0001)                -3.700000000000000E+01,      /* I =  3 */
(PID.TID 0000.0001)                -3.500000000000000E+01,      /* I =  4 */
(PID.TID 0000.0001)                -3.300000000000000E+01,      /* I =  5 */
(PID.TID 0000.0001)                -3.100000000000000E+01,      /* I =  6 */
(PID.TID 0000.0001)                -2.900000000000000E+01,      /* I =  7 */
(PID.TID 0000.0001)                -2.700000000000000E+01,      /* I =  8 */
(PID.TID 0000.0001)                -2.500000000000000E+01,      /* I =  9 */
(PID.TID 0000.0001)                -2.300000000000000E+01,      /* I = 10 */
(PID.TID 0000.0001)                -2.100000000000000E+01,      /* I = 11 */
(PID.TID 0000.0001)                -1.900000000000000E+01,      /* I = 12 */
(PID.TID 0000.0001)                -1.700000000000000E+01,      /* I = 13 */
(PID.TID 0000.0001)                -1.500000000000000E+01,      /* I = 14 */
(PID.TID 0000.0001)                -1.300000000000000E+01,      /* I = 15 */
(PID.TID 0000.0001)                -1.100000000000000E+01,      /* I = 16 */
(PID.TID 0000.0001)                -9.000000000000000E+00,      /* I = 17 */
(PID.TID 0000.0001)                -7.000000000000000E+00,      /* I = 18 */
(PID.TID 0000.0001)                -5.000000000000000E+00,      /* I = 19 */
(PID.TID 0000.0001)                -3.000000000000000E+00       /* I = 20 */
(PID.TID 0000.0001)     ;
(PID.TID 0000.0001) ycoord =    /* P-point Y coord ( m - cartesian, degrees - spherical ) */
(PID.TID 0000.0001)                 1.100000000000000E+01,      /* J =  1 */
(PID.TID 0000.0001)                 1.300000000000000E+01,      /* J =  2 */
(PID.TID 0000.0001)                 1.500000000000000E+01,      /* J =  3 */
(PID.TID 0000.0001)                 1.700000000000000E+01,      /* J =  4 */
(PID.TID 0000.0001)                 1.900000000000000E+01,      /* J =  5 */
(PID.TID 0000.0001)                 2.100000000000000E+01,      /* J =  6 */
(PID.TID 0000.0001)                 2.300000000000000E+01,      /* J =  7 */
(PID.TID 0000.0001)                 2.500000000000000E+01,      /* J =  8 */
(PID.TID 0000.0001)                 2.700000000000000E+01,      /* J =  9 */
(PID.TID 0000.0001)                 2.900000000000000E+01,      /* J = 10 */
(PID.TID 0000.0001)                 3.100000000000000E+01,      /* J = 11 */
(PID.TID 0000.0001)                 3.300000000000000E+01,      /* J = 12 */
(PID.TID 0000.0001)                 3.500000000000000E+01,      /* J = 13 */
(PID.TID 0000.0001)                 3.700000000000000E+01,      /* J = 14 */
(PID.TID 0000.0001)                 3.900000000000000E+01,      /* J = 15 */
(PID.TID 0000.0001)                 4.100000000000000E+01       /* J = 16 */
(PID.TID 0000.0001)     ;
(PID.TID 0000.0001) rcoord =    /* P-point R coordinate (  units of r ) */
(PID.TID 0000.0001)                -5.000000000000000E+00,      /* K =  1 */
(PID.TID 0000.0001)                -1.500000000000000E+01,      /* K =  2 */
(PID.TID 0000.0001)                -2.750000000000000E+01,      /* K =  3 */
(PID.TID 0000.0001)                -4.500000000000000E+01,      /* K =  4 */
(PID.TID 0000.0001)                -6.500000000000000E+01,      /* K =  5 */
(PID.TID 0000.0001)                -8.750000000000000E+01,      /* K =  6 */
(PID.TID 0000.0001)                -1.175000000000000E+02,      /* K =  7 */
(PID.TID 0000.0001)                -1.600000000000000E+02,      /* K =  8 */
(PID.TID 0000.0001)                -2.225000000000000E+02,      /* K =  9 */
(PID.TID 0000.0001)                -3.100000000000000E+02,      /* K = 10 */
(PID.TID 0000.0001)                -4.350000000000000E+02,      /* K = 11 */
(PID.TID 0000.0001)                -6.100000000000000E+02,      /* K = 12 */
(PID.TID 0000.0001)                -8.475000000000000E+02,      /* K = 13 */
(PID.TID 0000.0001)                -1.160000000000000E+03,      /* K = 14 */
(PID.TID 0000.0001)                -1.542500000000000E+03,      /* K = 15 */
(PID.TID 0000.0001)                -1.975000000000000E+03,      /* K = 16 */
(PID.TID 0000.0001)                -2.450000000000000E+03,      /* K = 17 */
(PID.TID 0000.0001)                -2.950000000000000E+03,      /* K = 18 */
(PID.TID 0000.0001)                -3.450000000000000E+03,      /* K = 19 */
(PID.TID 0000.0001)                -3.950000000000000E+03,      /* K = 20 */
(PID.TID 0000.0001)                -4.450000000000000E+03,      /* K = 21 */
(PID.TID 0000.0001)                -4.950000000000000E+03,      /* K = 22 */
(PID.TID 0000.0001)                -5.450000000000000E+03       /* K = 23 */
(PID.TID 0000.0001)     ;
(PID.TID 0000.0001) 
 pathei: nach initialise_fixed
 pathei: ALLOW_ECCO_FORWARD_RUN
(PID.TID 0000.0001) 
(PID.TID 0000.0001)  cal_TimeStamp: iter =          0 time =  0.00000000E+00
(PID.TID 0000.0001)                 date =   19920102      220000
(PID.TID 0000.0001) 
(PID.TID 0000.0001)  MDSREADFIELD: opening global file: kf_climtheta
(PID.TID 0000.0001) // =======================================================
(PID.TID 0000.0001) // Field Initial Temperature at iteration          1
(PID.TID 0000.0001) // CMIN =          1.840084838867188E+01
(PID.TID 0000.0001) // CMAX =          2.607793426513672E+01
(PID.TID 0000.0001) // CINT =          2.843365139431424E-01
(PID.TID 0000.0001) // SYMBOLS (CMIN->CMAX): -abcdefghijklmnopqrstuvwxyz+
(PID.TID 0000.0001) //                  0.0: .
(PID.TID 0000.0001) // RANGE I (Lo:Hi:Step):(   1:  20:   1)
(PID.TID 0000.0001) // RANGE J (Lo:Hi:Step):(  16:   1:  -1)
(PID.TID 0000.0001) // RANGE K (Lo:Hi:Step):(   1:   1:   1)
(PID.TID 0000.0001) // =======================================================
(PID.TID 0000.0001) K =   1
(PID.TID 0000.0001)                I=10      I=20
(PID.TID 0000.0001) |--J--|123456789|123456789|
(PID.TID 0000.0001)     16 ....................
(PID.TID 0000.0001)     15 .jihhgfeedddcba---a.
(PID.TID 0000.0001)     14 .kjiihggffeedcbbabb.
(PID.TID 0000.0001)     13 .lkkjiiiihgfedccbc..
(PID.TID 0000.0001)     12 .mllkkjjjihgfedcc...
(PID.TID 0000.0001)     11 .onnmmllkjihgfeec...
(PID.TID 0000.0001)     10 .rrqqponmmlkihf.....
(PID.TID 0000.0001)      9 .utssrqponmljh......
(PID.TID 0000.0001)      8 .vuttsrqponlig......
(PID.TID 0000.0001)      7 .vuutsrrponkif......
(PID.TID 0000.0001)      6 .wvvuutsrqomjh......
(PID.TID 0000.0001)      5 .yxwwwvutsrpnl......
(PID.TID 0000.0001)      4 .zyyyxxwwvutrq......
(PID.TID 0000.0001)      3 .zzzzyyxxxxwvu......
(PID.TID 0000.0001)      2 .+++++zzz+++zy......
(PID.TID 0000.0001)      1 ....................
(PID.TID 0000.0001) // =======================================================
(PID.TID 0000.0001) // END OF FIELD                                          =
(PID.TID 0000.0001) // =======================================================
(PID.TID 0000.0001) 
(PID.TID 0000.0001)  MDSREADFIELD: opening global file: kf_climsalt
(PID.TID 0000.0001) // =======================================================
(PID.TID 0000.0001) // Field Initial Salinity at iteration          1
(PID.TID 0000.0001) // CMIN =          3.501070022583008E+01
(PID.TID 0000.0001) // CMAX =          3.739887619018555E+01
(PID.TID 0000.0001) // CINT =          8.845096164279515E-02
(PID.TID 0000.0001) // SYMBOLS (CMIN->CMAX): -abcdefghijklmnopqrstuvwxyz+
(PID.TID 0000.0001) //                  0.0: .
(PID.TID 0000.0001) // RANGE I (Lo:Hi:Step):(   1:  20:   1)
(PID.TID 0000.0001) // RANGE J (Lo:Hi:Step):(  16:   1:  -1)
(PID.TID 0000.0001) // RANGE K (Lo:Hi:Step):(   1:   1:   1)
(PID.TID 0000.0001) // =======================================================
(PID.TID 0000.0001) K =   1
(PID.TID 0000.0001)                I=10      I=20
(PID.TID 0000.0001) |--J--|123456789|123456789|
(PID.TID 0000.0001)     16 ....................
(PID.TID 0000.0001)     15 .oonnnnmmnnnnnnmllk.
(PID.TID 0000.0001)     14 .ppppoooopppppppooo.
(PID.TID 0000.0001)     13 .qqqqqrrrrrrqqqqqq..
(PID.TID 0000.0001)     12 .tttttttttttssrqp...
(PID.TID 0000.0001)     11 .wwwwwwvvvvuusrpn...
(PID.TID 0000.0001)     10 .zzyyyyyxxwvusr.....
(PID.TID 0000.0001)      9 .++zzzzyxxwutr......
(PID.TID 0000.0001)      8 .+zzyyyxwvusrp......
(PID.TID 0000.0001)      7 .xxxxwwutsrpnm......
(PID.TID 0000.0001)      6 .uuuuutsqponlj......
(PID.TID 0000.0001)      5 .rrrrqqponmkji......
(PID.TID 0000.0001)      4 .poooonmmlkihg......
(PID.TID 0000.0001)      3 .mmlllllkjihec......
(PID.TID 0000.0001)      2 .jjjkkkjjihfd-......
(PID.TID 0000.0001)      1 ....................
(PID.TID 0000.0001) // =======================================================
(PID.TID 0000.0001) // END OF FIELD                                          =
(PID.TID 0000.0001) // =======================================================
(PID.TID 0000.0001) 
(PID.TID 0000.0001)  MDSREADFIELD: opening file: xx_theta.0000000000.001.001.data
(PID.TID 0000.0001)  MDSREADFIELD: opening file: xx_salt.0000000000.001.001.data
(PID.TID 0000.0001) // =======================================================
(PID.TID 0000.0001) // Model current state
(PID.TID 0000.0001) // =======================================================
(PID.TID 0000.0001) 
(PID.TID 0000.0001) 
(PID.TID 0000.0001)  exf_GetFFieldsRec:            thefield:  climsst
(PID.TID 0000.0001)  exf_GetFFieldsRec: first, changed, fac:   T   F   0.10000000E+01
(PID.TID 0000.0001)  exf_GetFFieldsRec:      count0, count1:   1   2
(PID.TID 0000.0001) 
(PID.TID 0000.0001)  MDSREADFIELD: opening global file: kf_sst
(PID.TID 0000.0001)  MDSREADFIELD: opening global file: kf_sst
(PID.TID 0000.0001) 
(PID.TID 0000.0001)  exf_GetSSTClim:  first, changed, fac:   T   F   0.10000000E+01
(PID.TID 0000.0001)  exf_GetSSTClim:       count0, count1:   1   2
(PID.TID 0000.0001) 
(PID.TID 0000.0001) 
(PID.TID 0000.0001)  exf_GetFFieldsRec:            thefield:  climsss
(PID.TID 0000.0001)  exf_GetFFieldsRec: first, changed, fac:   T   F   0.10000000E+01
(PID.TID 0000.0001)  exf_GetFFieldsRec:      count0, count1:   1   2
(PID.TID 0000.0001) 
(PID.TID 0000.0001)  MDSREADFIELD: opening global file: kf_sss
(PID.TID 0000.0001)  MDSREADFIELD: opening global file: kf_sss
(PID.TID 0000.0001) 
(PID.TID 0000.0001)  GET_SSS_CLIMATOLOGY:  first, changed, fac:   T   F   0.10000000E+01
(PID.TID 0000.0001)  GET_SSS_CLIMATOLOGY:       count0, count1:   1   2
(PID.TID 0000.0001) 
(PID.TID 0000.0001) 
(PID.TID 0000.0001)  exf_GetFFieldsRec:            thefield:  heatflux
(PID.TID 0000.0001)  exf_GetFFieldsRec: first, changed, fac:   T   F   0.10000000E+01
(PID.TID 0000.0001)  exf_GetFFieldsRec:      count0, count1:   1   2
(PID.TID 0000.0001) 
(PID.TID 0000.0001) 
(PID.TID 0000.0001)  exf_GetFFieldsRec:            thefield:  saltflux
(PID.TID 0000.0001)  exf_GetFFieldsRec: first, changed, fac:   T   F   0.10000000E+01
(PID.TID 0000.0001)  exf_GetFFieldsRec:      count0, count1:   1   2
(PID.TID 0000.0001) 
(PID.TID 0000.0001) 
(PID.TID 0000.0001)  exf_GetFFieldsRec:            thefield:  ustress
(PID.TID 0000.0001)  exf_GetFFieldsRec: first, changed, fac:   T   F   0.10000000E+01
(PID.TID 0000.0001)  exf_GetFFieldsRec:      count0, count1:   1   2
(PID.TID 0000.0001) 
(PID.TID 0000.0001) 
(PID.TID 0000.0001)  exf_GetFFieldsRec:            thefield:  vstress
(PID.TID 0000.0001)  exf_GetFFieldsRec: first, changed, fac:   T   F   0.10000000E+01
(PID.TID 0000.0001)  exf_GetFFieldsRec:      count0, count1:   1   2
(PID.TID 0000.0001) 
(PID.TID 0000.0001) 
(PID.TID 0000.0001)  exf_GetFFieldsRec:            thefield:  swflux
(PID.TID 0000.0001)  exf_GetFFieldsRec: first, changed, fac:   T   F   0.10000000E+01
(PID.TID 0000.0001)  exf_GetFFieldsRec:      count0, count1:   1   2
(PID.TID 0000.0001) 
(PID.TID 0000.0001)  MDSREADFIELD: opening global file: kf_qnet
(PID.TID 0000.0001)  MDSREADFIELD: opening global file: kf_qnet
(PID.TID 0000.0001)  MDSREADFIELD: opening global file: kf_empmr
(PID.TID 0000.0001)  MDSREADFIELD: opening global file: kf_empmr
(PID.TID 0000.0001)  MDSREADFIELD: opening global file: kf_fu
(PID.TID 0000.0001)  MDSREADFIELD: opening global file: kf_fu
(PID.TID 0000.0001)  MDSREADFIELD: opening global file: kf_fv
(PID.TID 0000.0001)  MDSREADFIELD: opening global file: kf_fv
(PID.TID 0000.0001)  MDSREADFIELD: opening global file: kf_sw
(PID.TID 0000.0001)  MDSREADFIELD: opening global file: kf_sw
(PID.TID 0000.0001)  MDSREADFIELD: opening file: xx_hfl.0000000000.001.001.data
(PID.TID 0000.0001)  MDSREADFIELD: opening file: xx_hfl.0000000000.001.001.data
(PID.TID 0000.0001)  MDSREADFIELD: opening file: xx_sfl.0000000000.001.001.data
(PID.TID 0000.0001)  MDSREADFIELD: opening file: xx_sfl.0000000000.001.001.data
(PID.TID 0000.0001)  MDSREADFIELD: opening file: xx_tauu.0000000000.001.001.data
(PID.TID 0000.0001)  MDSREADFIELD: opening file: xx_tauu.0000000000.001.001.data
(PID.TID 0000.0001)  MDSREADFIELD: opening file: xx_tauv.0000000000.001.001.data
(PID.TID 0000.0001)  MDSREADFIELD: opening file: xx_tauv.0000000000.001.001.data
(PID.TID 0000.0001) // =======================================================
(PID.TID 0000.0001) // Field Current uVel   at iteration          0
(PID.TID 0000.0001) // CMIN =          1.000000000000000E+32
(PID.TID 0000.0001) // CMAX =         -1.000000000000000E+32
(PID.TID 0000.0001) // CINT =          0.000000000000000E+00
(PID.TID 0000.0001) // SYMBOLS (CMIN->CMAX): -abcdefghijklmnopqrstuvwxyz+
(PID.TID 0000.0001) //                  0.0: .
(PID.TID 0000.0001) // RANGE I (Lo:Hi:Step):(   1:  20:   1)
(PID.TID 0000.0001) // RANGE J (Lo:Hi:Step):(  16:   1:  -1)
(PID.TID 0000.0001) // RANGE K (Lo:Hi:Step):(   1:   1:   1)
(PID.TID 0000.0001) // =======================================================
(PID.TID 0000.0001) K =   1
(PID.TID 0000.0001)                I=10      I=20
(PID.TID 0000.0001) |--J--|123456789|123456789|
(PID.TID 0000.0001)     16 ....................
(PID.TID 0000.0001)     15 ....................
(PID.TID 0000.0001)     14 ....................
(PID.TID 0000.0001)     13 ....................
(PID.TID 0000.0001)     12 ....................
(PID.TID 0000.0001)     11 ....................
(PID.TID 0000.0001)     10 ....................
(PID.TID 0000.0001)      9 ....................
(PID.TID 0000.0001)      8 ....................
(PID.TID 0000.0001)      7 ....................
(PID.TID 0000.0001)      6 ....................
(PID.TID 0000.0001)      5 ....................
(PID.TID 0000.0001)      4 ....................
(PID.TID 0000.0001)      3 ....................
(PID.TID 0000.0001)      2 ....................
(PID.TID 0000.0001)      1 ....................
(PID.TID 0000.0001) // =======================================================
(PID.TID 0000.0001) // END OF FIELD                                          =
(PID.TID 0000.0001) // =======================================================
(PID.TID 0000.0001) 
(PID.TID 0000.0001) // =======================================================
(PID.TID 0000.0001) // Field Current vVel   at iteration          0
(PID.TID 0000.0001) // CMIN =          1.000000000000000E+32
(PID.TID 0000.0001) // CMAX =         -1.000000000000000E+32
(PID.TID 0000.0001) // CINT =          0.000000000000000E+00
(PID.TID 0000.0001) // SYMBOLS (CMIN->CMAX): -abcdefghijklmnopqrstuvwxyz+
(PID.TID 0000.0001) //                  0.0: .
(PID.TID 0000.0001) // RANGE I (Lo:Hi:Step):(   1:  20:   1)
(PID.TID 0000.0001) // RANGE J (Lo:Hi:Step):(  16:   1:  -1)
(PID.TID 0000.0001) // RANGE K (Lo:Hi:Step):(   1:   1:   1)
(PID.TID 0000.0001) // =======================================================
(PID.TID 0000.0001) K =   1
(PID.TID 0000.0001)                I=10      I=20
(PID.TID 0000.0001) |--J--|123456789|123456789|
(PID.TID 0000.0001)     16 ....................
(PID.TID 0000.0001)     15 ....................
(PID.TID 0000.0001)     14 ....................
(PID.TID 0000.0001)     13 ....................
(PID.TID 0000.0001)     12 ....................
(PID.TID 0000.0001)     11 ....................
(PID.TID 0000.0001)     10 ....................
(PID.TID 0000.0001)      9 ....................
(PID.TID 0000.0001)      8 ....................
(PID.TID 0000.0001)      7 ....................
(PID.TID 0000.0001)      6 ....................
(PID.TID 0000.0001)      5 ....................
(PID.TID 0000.0001)      4 ....................
(PID.TID 0000.0001)      3 ....................
(PID.TID 0000.0001)      2 ....................
(PID.TID 0000.0001)      1 ....................
(PID.TID 0000.0001) // =======================================================
(PID.TID 0000.0001) // END OF FIELD                                          =
(PID.TID 0000.0001) // =======================================================
(PID.TID 0000.0001) 
(PID.TID 0000.0001) // =======================================================
(PID.TID 0000.0001) // Field Current theta  at iteration          0
(PID.TID 0000.0001) // CMIN =          1.840084838867188E+01
(PID.TID 0000.0001) // CMAX =          2.607793426513672E+01
(PID.TID 0000.0001) // CINT =          2.843365139431424E-01
(PID.TID 0000.0001) // SYMBOLS (CMIN->CMAX): -abcdefghijklmnopqrstuvwxyz+
(PID.TID 0000.0001) //                  0.0: .
(PID.TID 0000.0001) // RANGE I (Lo:Hi:Step):(   1:  20:   1)
(PID.TID 0000.0001) // RANGE J (Lo:Hi:Step):(  16:   1:  -1)
(PID.TID 0000.0001) // RANGE K (Lo:Hi:Step):(   1:   1:   1)
(PID.TID 0000.0001) // =======================================================
(PID.TID 0000.0001) K =   1
(PID.TID 0000.0001)                I=10      I=20
(PID.TID 0000.0001) |--J--|123456789|123456789|
(PID.TID 0000.0001)     16 ....................
(PID.TID 0000.0001)     15 .jihhgfeedddcba---a.
(PID.TID 0000.0001)     14 .kjiihggffeedcbbabb.
(PID.TID 0000.0001)     13 .lkkjiiiihgfedccbc..
(PID.TID 0000.0001)     12 .mllkkjjjihgfedcc...
(PID.TID 0000.0001)     11 .onnmmllkjihgfeec...
(PID.TID 0000.0001)     10 .rrqqponmmlkihf.....
(PID.TID 0000.0001)      9 .utssrqponmljh......
(PID.TID 0000.0001)      8 .vuttsrqponlig......
(PID.TID 0000.0001)      7 .vuutsrrponkif......
(PID.TID 0000.0001)      6 .wvvuutsrqomjh......
(PID.TID 0000.0001)      5 .yxwwwvutsrpnl......
(PID.TID 0000.0001)      4 .zyyyxxwwvutrq......
(PID.TID 0000.0001)      3 .zzzzyyxxxxwvu......
(PID.TID 0000.0001)      2 .+++++zzz+++zy......
(PID.TID 0000.0001)      1 ....................
(PID.TID 0000.0001) // =======================================================
( cg2d: Sum(rhs) =           2.85362011798185E-16
 CG2D iters, err =      0          3.96052169270541E+00
 CG2D iters, err =     50          6.43887856943635E-14
PID.TID 0000.0001) // END OF FIELD                                          =
(PID.TID 0000.0001) // =======================================================
(PID.TID 0000.0001) 
(PID.TID 0000.0001) // =======================================================
(PID.TID 0000.0001) // Field Current cg2d_x  at iteration          0
(PID.TID 0000.0001) // CMIN =          1.000000000000000E+32
(PID.TID 0000.0001) // CMAX =         -1.000000000000000E+32
(PID.TID 0000.0001) // CINT =          0.000000000000000E+00
(PID.TID 0000.0001) // SYMBOLS (CMIN->CMAX): -abcdefghijklmnopqrstuvwxyz+
(PID.TID 0000.0001) //                  0.0: .
(PID.TID 0000.0001) // RANGE I (Lo:Hi:Step):(  -3:  24:   1)
(PID.TID 0000.0001) // RANGE J (Lo:Hi:Step):(  20:  -3:  -1)
(PID.TID 0000.0001) // RANGE K (Lo:Hi:Step):(   1:   1:   1)
(PID.TID 0000.0001) // =======================================================
(PID.TID 0000.0001) K =   1
(PID.TID 0000.0001)                I=6       I=16
(PID.TID 0000.0001) |--J--|***012345|789012345|78901234
(PID.TID 0000.0001)     20 ............................
(PID.TID 0000.0001)     19 ............................
(PID.TID 0000.0001)     18 ............................
(PID.TID 0000.0001)     17 ............................
(PID.TID 0000.0001)     16 ............................
(PID.TID 0000.0001)     15 ............................
(PID.TID 0000.0001)     14 ............................
(PID.TID 0000.0001)     13 ............................
(PID.TID 0000.0001)     12 ............................
(PID.TID 0000.0001)     11 ............................
(PID.TID 0000.0001)     10 ............................
(PID.TID 0000.0001)      9 ............................
(PID.TID 0000.0001)      8 ............................
(PID.TID 0000.0001)      7 ............................
(PID.TID 0000.0001)      6 ............................
(PID.TID 0000.0001)      5 ............................
(PID.TID 0000.0001)      4 ............................
(PID.TID 0000.0001)      3 ............................
(PID.TID 0000.0001)      2 ............................
(PID.TID 0000.0001)      1 ............................
(PID.TID 0000.0001)      0 ............................
(PID.TID 0000.0001)     -1 ............................
(PID.TID 0000.0001)     -2 ............................
(PID.TID 0000.0001)     -3 ............................
(PID.TID 0000.0001) // =======================================================
(PID.TID 0000.0001) // END OF FIELD                                          =
(PID.TID 0000.0001) // =======================================================
(PID.TID 0000.0001) 
(PID.TID 0000.0001) 
(PID.TID 0000.0001)  cal_TimeStamp: iter =          1 time =  0.36000000E+04
(PID.TID 0000.0001)                 date =   19920102      230000
(PID.TID 0000.0001) 
 pathei: in check_exp: iter/time/rec/yprefix  1  3600. 1 kf_
 pathei: in check_exp: date   19920102 230000 2 7
 pathei: in check_exp: theta   21.9700623
 pathei: in check_exp: salt    37.1130981
 pathei: in check_exp: uvel    0.
 pathei: in check_exp: vvel    0.
 pathei: in check_exp: qnet    147.296127
 pathei: in check_exp: empmr   2.83352026E-08
 pathei: in check_exp: fu     -0.0133724213
 pathei: in check_exp: fv     -0.0204217304
 pathei: in check_exp: sst     22.0262718
 pathei: in check_exp: sss     37.0500717
(PID.TID 0000.0001) 
(PID.TID 0000.0001)  exf_GetFFieldsRec:            thefield:  climsst
(PID.TID 0000.0001)  exf_GetFFieldsRec: first, changed, fac:   F   F   0.91666667E+00
(PID.TID 0000.0001)  exf_GetFFieldsRec:      count0, count1:   1   2
(PID.TID 0000.0001) 
(PID.TID 0000.0001) 
(PID.TID 0000.0001)  exf_GetSSTClim:  first, changed, fac:   F   F   0.91666667E+00
(PID.TID 0000.0001)  exf_GetSSTClim:       count0, count1:   1   2
(PID.TID 0000.0001) 
(PID.TID 0000.0001) 
(PID.TID 0000.0001)  exf_GetFFieldsRec:            thefield:  climsss
(PID.TID 0000.0001)  exf_GetFFieldsRec: first, changed, fac:   F   F   0.91666667E+00
(PID.TID 0000.0001)  exf_GetFFieldsRec:      count0, count1:   1   2
(PID.TID 0000.0001) 
(PID.TID 0000.0001) 
(PID.TID 000 cg2d: Sum(rhs) =           1.56125112837913E-15
 CG2D iters, err =      0          1.44818495393298E+00
 CG2D iters, err =     49          5.01213999525799E-14
0.0001)  GET_SSS_CLIMATOLOGY:  first, changed, fac:   F   F   0.91666667E+00
(PID.TID 0000.0001)  GET_SSS_CLIMATOLOGY:       count0, count1:   1   2
(PID.TID 0000.0001) 
(PID.TID 0000.0001) 
(PID.TID 0000.0001)  exf_GetFFieldsRec:            thefield:  heatflux
(PID.TID 0000.0001)  exf_GetFFieldsRec: first, changed, fac:   F   F   0.91666667E+00
(PID.TID 0000.0001)  exf_GetFFieldsRec:      count0, count1:   1   2
(PID.TID 0000.0001) 
(PID.TID 0000.0001) 
(PID.TID 0000.0001)  exf_GetFFieldsRec:            thefield:  saltflux
(PID.TID 0000.0001)  exf_GetFFieldsRec: first, changed, fac:   F   F   0.91666667E+00
(PID.TID 0000.0001)  exf_GetFFieldsRec:      count0, count1:   1   2
(PID.TID 0000.0001) 
(PID.TID 0000.0001) 
(PID.TID 0000.0001)  exf_GetFFieldsRec:            thefield:  ustress
(PID.TID 0000.0001)  exf_GetFFieldsRec: first, changed, fac:   F   F   0.91666667E+00
(PID.TID 0000.0001)  exf_GetFFieldsRec:      count0, count1:   1   2
(PID.TID 0000.0001) 
(PID.TID 0000.0001) 
(PID.TID 0000.0001)  exf_GetFFieldsRec:            thefield:  vstress
(PID.TID 0000.0001)  exf_GetFFieldsRec: first, changed, fac:   F   F   0.91666667E+00
(PID.TID 0000.0001)  exf_GetFFieldsRec:      count0, count1:   1   2
(PID.TID 0000.0001) 
(PID.TID 0000.0001) 
(PID.TID 0000.0001)  exf_GetFFieldsRec:            thefield:  swflux
(PID.TID 0000.0001)  exf_GetFFieldsRec: first, changed, fac:   F   F   0.91666667E+00
(PID.TID 0000.0001)  exf_GetFFieldsRec:      count0, count1:   1   2
(PID.TID 0000.0001) 
(PID.TID 0000.0001)  MDSREADFIELD: opening file: xx_hfl.0000000000.001.001.data
(PID.TID 0000.0001)  MDSREADFIELD: opening file: xx_hfl.0000000000.001.001.data
(PID.TID 0000.0001)  MDSREADFIELD: opening file: xx_sfl.0000000000.001.001.data
(PID.TID 0000.0001)  MDSREADFIELD: opening file: xx_sfl.0000000000.001.001.data
[...]
(PID.TID 0000.0001) 
(PID.TID 0000.0001) 
(PID.TID 0000.0001)  GET_SSS_CLIMATOLOGY:  first, changed, fac:   F   F   0.66666667E+00
(PID.TID 0000.0001)  GET_SSS_CLIMATOLOGY:       count0, count1:  61  62
(PID.TID 0000.0001) 
(PID.TID 0000.0001) 
(PID.TID 0000.0001)  exf_GetFFieldsRec:            thefield:  heatflux
(PID.TID 0000.0001)  exf_GetFFieldsRec: first, changed, fac:   F   F   0.66666667E+00
(PID.TID 0000.0001)  exf_GetFFieldsRec:      count0, count1:  61  62
(PID.TID 0000.0001) 
(PID.TID 0000.0001) 
(PID.TID 0000.0001)  exf_GetFFieldsRec:            thefield:  saltflux
(PID.TID 0000.0001)  exf_GetFFieldsRec: first, changed, fac:   F   F   0.66666667E+00
(PID.TID 0000.0001)  exf_GetFFieldsRec:      count0, count1:  61  62
(PID.TID 0000.0001) 
(PID.TID 0000.0001) 
(PID.TID 0000.0001)  exf_GetFFieldsRec:            thefield:  ustress
(PID.TID 0000.0001)  exf_GetFFieldsRec: first, changed, fac:   F   F   0.66666667E+00
(PID.TID 0000.0001)  exf_GetFFieldsRec:      count0, count1:  61  62
(PID.TID 0000.0001) 
(PID.TID 0000.0001) 
(PID.TID 0000.0001)  exf_GetFFieldsRec:            thefield:  vstress
(PID.TID 0000.0001)  exf_GetFFieldsRec: first, changed, fac:   F   F   0.66666667E+00
(PID.TID 0000.0001)  exf_GetFFieldsRec:      count0, count1:  61  62
(PID.TID 0000.0001) cg2d: Sum(rhs) =           7.83165199358393E-13
 CG2D iters, err =      0          6.75749958142177E-03
 CG2D iters, err =     41          8.41964463525364E-14
 cg2d: Sum(rhs) =           7.87842013849627E-13
 CG2D iters, err =      0          6.67571635764497E-03
 CG2D iters, err =     41          7.31093161948489E-14
 
(PID.TID 0000.0001) 
(PID.TID 0000.0001)  exf_GetFFieldsRec:            thefield:  swflux
(PID.TID 0000.0001)  exf_GetFFieldsRec: first, changed, fac:   F   F   0.66666667E+00
(PID.TID 0000.0001)  exf_GetFFieldsRec:      count0, count1:  61  62
(PID.TID 0000.0001) 
(PID.TID 0000.0001)  MDSREADFIELD: opening file: xx_hfl.0000000000.001.001.data
(PID.TID 0000.0001)  MDSREADFIELD: opening file: xx_hfl.0000000000.001.001.data
(PID.TID 0000.0001)  MDSREADFIELD: opening file: xx_sfl.0000000000.001.001.data
(PID.TID 0000.0001)  MDSREADFIELD: opening file: xx_sfl.0000000000.001.001.data
(PID.TID 0000.0001)  MDSREADFIELD: opening file: xx_tauu.0000000000.001.001.data
(PID.TID 0000.0001)  MDSREADFIELD: opening file: xx_tauu.0000000000.001.001.data
(PID.TID 0000.0001)  MDSREADFIELD: opening file: xx_tauv.0000000000.001.001.data
(PID.TID 0000.0001)  MDSREADFIELD: opening file: xx_tauv.0000000000.001.001.data
(PID.TID 0000.0001) 
(PID.TID 0000.0001)  cal_TimeStamp: iter =        725 time =  0.26100000E+07
(PID.TID 0000.0001)                 date =   19920202       30000
(PID.TID 0000.0001) 
(PID.TID 0000.0001) 
(PID.TID 0000.0001)  exf_GetFFieldsRec:            thefield:  climsst
(PID.TID 0000.0001)  exf_GetFFieldsRec: first, changed, fac:   F   F   0.58333333E+00
(PID.TID 0000.0001)  exf_GetFFieldsRec:      count0, count1:  61  62
(PID.TID 0000.0001) 
(PID.TID 0000.0001) 
(PID.TID 0000.0001)  exf_GetSSTClim:  first, changed, fac:   F   F   0.58333333E+00
(PID.TID 0000.0001)  exf_GetSSTClim:       count0, count1:  61  62
(PID.TID 0000.0001) 
(PID.TID 0000.0001) 
(PID.TID 0000.0001)  exf_GetFFieldsRec:            thefield:  climsss
(PID.TID 0000.0001)  exf_GetFFieldsRec: first, changed, fac:   F   F   0.58333333E+00
(PID.TID 0000.0001)  exf_GetFFieldsRec:      count0, count1:  61  62
(PID.TID 0000.0001) 
(PID.TID 0000.0001) 
(PID.TID 0000.0001)  GET_SSS_CLIMATOLOGY:  first, changed, fac:   F   F   0.58333333E+00
(PID.TID 0000.0001)  GET_SSS_CLIMATOLOGY:       count0, count1:  61  62
(PID.TID 0000.0001) 
(PID.TID 0000.0001) 
(PID.TID 0000.0001)  exf_GetFFieldsRec:            thefield:  heatflux
(PID.TID 0000.0001)  exf_GetFFieldsRec: first, changed, fac:   F   F   0.58333333E+00
(PID.TID 0000.0001)  exf_GetFFieldsRec:      count0, count1:  61  62
(PID.TID 0000.0001) 
(PID.TID 0000.0001) 
(PID.TID 0000.0001)  exf_GetFFieldsRec:            thefield:  saltflux
(PID.TID 0000.0001)  exf_GetFFieldsRec: first, changed, fac:   F   F   0.58333333E+00
(PID.TID 0000.0001)  exf_GetFFieldsRec:      count0, count1:  61  62
(PID.TID 0000.0001) 
(PID.TID 0000.0001) 
(PID.TID 0000.0001)  exf_GetFFieldsRec:            thefield:  ustress
(PID.TID 0000.0001)  exf_GetFFieldsRec: first, changed, fac:   F   F   0.58333333E+00
(PID.TID 0000.0001)  exf_GetFFieldsRec:      count0, count1:  61  62
(PID.TID 0000.0001) 
(PID.TID 0000.0001) 
(PID.TID 0000.0001)  exf_GetFFieldsRec:            thefield:  vstress
(PID.TID 0000.0001)  exf_GetFFieldsRec: first, changed, fac:   F   F   0.58333333E+00
(PID.TID 0000.0001)  exf_GetFFieldsRec:      count0, count1:  61  62
(PID.TID 0000.0001) 
(PID.TID 0000.0001) 
(PID.TID 0000.0001)  exf_GetFFieldsRec:            thefield:  swflux
(PID.TID 0000.0001)  exf_GetFFieldsRec: first, changed, fac:   F   F   0.58333333E+00
(PID.TID 0000.0001)  exf_GetFFieldsRec:      count0, count1:  61  62
(PID.TID 0000.0001) 
(PID.TID 0000.0001)  MDSREADFIELD: opening file: xx_hfl.0000000000.001.001.data
(PID.TID 0000.0001)  MDSREADFIELD: opening file: xx_hfl.0000000000.001.001.data
(PID.TID 0000.0001)  MDSREADFIELD: opening file: xx_sfl.0000000000.001.001.data
(PID.TID 0000.0001)  MDSREADFIELD: opening file: xx_sfl.0000000000.001.001.data
(PID.TID 0000.0001)  MDSREADFIELD: opening file: xx_tauu.0000000000.001.001.data
(PID.TID 0000.0001)  MDSREADFIELD: opening file: xx_tauu.0000000000.001.001.data
(PID.TID 0000.0001)  MDSREADFIELD: opening file: xx_tauv.0000000000.001.001.data
(PID.TID 0000.0001)  MDSREADFIELD: opening file: xx_tauv.0000000000.001.001.data
(PID.TID 0000.0001) 
(PID.TID 0000.0001)  cal_TimeStamp: iter =        726 time =  0.26136000E+07
(PID.TID 0000.0001)                 date =   19920202       40000
(PID.TID 0000.0001) 
  --> objf_temp(bi,bj) =  0.
  --> objf_salt(bi,bj) =  0.
  --> objf_tauu(bi,bj) =  0.
  --> objf_tauv(bi,bj) =  0.
  --> objf_hq(bi,bj)   =  0.
  --> objf_hs(bi,bj)   =  0.
  --> objf_sst(bi,bj)  =  0.
  --> objf_h(bi,bj)    =  0.
  --> objf_atl(bi,bj)  =  0.
  --> objf_ctdt(bi,bj) =  0.
  --> objf_ctds(bi,bj) =  0.
  --> fc               =  0.
 pathei: vor ctrl_finalise
(PID.TID 0000.0001)  MDSREADFIELD: opening file: xx_theta.0000000000.001.001.data
(PID.TID 0000.0001)  MDSREADFIELD: opening file: xx_salt.0000000000.001.001.data
(PID.TID 0000.0001)  MDSREADFIELD: opening file: xx_hfl.0000000000.001.001.data
(PID.TID 0000.0001)  MDSREADFIELD: opening file: xx_hfl.0000000000.001.001.data
(PID.TID 0000.0001)  MDSREADFIELD: opening file: xx_hfl.0000000000.001.001.data
(PID.TID 0000.0001)  MDSREADFIELD: opening file: xx_hfl.0000000000.001.001.data
(PID.TID 0000.0001)  MDSREADFIELD: opening file: xx_hfl.0000000000.001.001.data
(PID.TID 0000.0001)  MDSREADFIELD: opening file: xx_sfl.0000000000.001.001.data
(PID.TID 0000.0001)  MDSREADFIELD: opening file: xx_sfl.0000000000.001.001.data
(PID.TID 0000.0001)  MDSREADFIELD: opening file: xx_sfl.0000000000.001.001.data
(PID.TID 0000.0001)  MDSREADFIELD: opening file: xx_sfl.0000000000.001.001.data
(PID.TID 0000.0001)  MDSREADFIELD: opening file: xx_sfl.0000000000.001.001.data
(PID.TID 0000.0001)  MDSREADFIELD: opening file: xx_tauu.0000000000.001.001.data
(PID.TID 0000.0001)  MDSREADFIELD: opening file: xx_tauu.0000000000.001.001.data
(PID.TID 0000.0001)  MDSREADFIELD: opening file: xx_tauu.0000000000.001.001.data
(PID.TID 0000.0001)  MDSREADFIELD: opening file: xx_tauu.0000000000.001.001.data
(PID.TID 0000.0001)  MDSREADFIELD: opening file: xx_tauu.0000000000.001.001.data
(PID.TID 0000.0001)  MDSREADFIELD: opening file: xx_tauv.0000000000.001.001.data
(PID.TID 0000.0001)  MDSREADFIELD: opening file: xx_tauv.0000000000.001.001.data
(PID.TID 0000.0001)  MDSREADFIELD: opening file: xx_tauv.0000000000.001.001.data
(PID.TID 0000.0001)  MDSREADFIELD: opening file: xx_tauv.0000000000.001.001.data
(PID.TID 0000.0001)  MDSREADFIELD: opening file: xx_tauv.0000000000.001.001.data
(PID.TID 0000.0001)  MDSREADFIELD: opening file: adxx_theta.0000000000.001.001.data
(PID.TID 0000.0001)  MDSREADFIELD: opening file: adxx_salt.0000000000.001.001.data
(PID.TID 0000.0001)  MDSREADFIELD: opening file: adxx_hfl.0000000000.001.001.data
(PID.TID 0000.0001)  MDSREADFIELD: opening file: adxx_hfl.0000000000.001.001.data
(PID.TID 0000.0001)  MDSREADFIELD: opening file: adxx_hfl.0000000000.001.001.data
(PID.TID 0000.0001)  MDSREADFIELD: opening file: adxx_hfl.0000000000.001.001.data
(PID.TID 0000.0001)  MDSREADFIELD: opening file: adxx_hfl.0000000000.001.001.data
(PID.TID 0000.0001)  MDSREADFIELD: opening file: adxx_sfl.0000000000.001.001.data
(PID.TID 0000.0001)  MDSREADFIELD: opening file: adxx_sfl.0000000000.001.001.data
(PID.TID 0000.0001)  MDSREADFIELD: opening file: adxx_sfl.0000000000.001.001.data
(PID.TID 0000.0001)  MDSREADFIELD: opening file: adxx_sfl.0000000000.001.001.data
(PID.TID 0000.0001)  MDSREADFIELD: opening file: adxx_sfl.0000000000.001.001.data
(PID.TID 0000.0001)  MDSREADFIELD: opening file: adxx_tauu.0000000000.001.001.data
(PID.TID 0000.0001)  MDSREADFIELD: opening file: adxx_tauu.0000000000.001.001.data
(PID.TID 0000.0001)  MDSREADFIELD: opening file: adxx_tauu.0000000000.001.001.data
(PID.TID 0000.0001)  MDSREADFIELD: opening file: adxx_tauu.0000000000.001.001.data
(PID.TID 0000.0001)  MDSREADFIELD: opening file: adxx_tauu.0000000000.001.001.data
(PID.TID 0000.0001)  MDSREADFIELD: opening file: adxx_tauv.0000000000.001.001.data
(PID.TID 0000.0001)  MDSREADFIELD: opening file: adxx_tauv.0000000000.001.001.data
(PID.TID 0000.0001)  MDSREADFIELD: opening file: adxx_tauv.0000000000.001.001.data
(PID.TID 0000.0001)  MDSREADFIELD: opening file: adxx_tauv.0000000000.001.001.data
(PID.TID 0000.0001)  MDSREADFIELD: opening file: adxx_tauv.0000000000.001.001.data
 pathei: vor write_checkpoint
 pathei: vor write_state
(PID.TID 0000.0001)   Seconds in section "ALL":
(PID.TID 0000.0001)           User time:  159.120005
(PID.TID 0000.0001)         System time:  1.20000005
(PID.TID 0000.0001)     Wall clock time:  162.778558
(PID.TID 0000.0001)          No. starts: 1
(PID.TID 0000.0001)           No. stops: 1
(PID.TID 0000.0001)   Seconds in section "SPIN-UP":
(PID.TID 0000.0001)           User time:  0.149999997
(PID.TID 0000.0001)         System time:  0.00999999978
(PID.TID 0000.0001)     Wall clock time:  0.161651969
(PID.TID 0000.0001)          No. starts: 1
(PID.TID 0000.0001)           No. stops: 1
(PID.TID 0000.0001)   Seconds in section "INITIALISE_FIXED [SPIN-UP]":
(PID.TID 0000.0001)           User time:  0.130000001
(PID.TID 0000.0001)         System time:  0.00999999978
(PID.TID 0000.0001)     Wall clock time:  0.147446036
(PID.TID 0000.0001)          No. starts: 1
(PID.TID 0000.0001)           No. stops: 1
(PID.TID 0000.0001)   Seconds in section "I/O (WRITE)         [SPIN-UP]":
(PID.TID 0000.0001)           User time:  0.0199999958
(PID.TID 0000.0001)         System time:  0.
(PID.TID 0000.0001)     Wall clock time:  0.0140169859
(PID.TID 0000.0001)          No. starts: 1
(PID.TID 0000.0001)           No. stops: 1
(PID.TID 0000.0001)   Seconds in section "ECCO_MAIN [FORWARD RUN]":
(PID.TID 0000.0001)           User time:  158.670002
(PID.TID 0000.0001)         System time:  1.14999997
(PID.TID 0000.0001)     Wall clock time:  162.264703
(PID.TID 0000.0001)          No. starts: 1
(PID.TID 0000.0001)           No. stops: 1
(PID.TID 0000.0001)   Seconds in section "ECCO SPIN-UP":
(PID.TID 0000.0001)           User time:  0.609999985
(PID.TID 0000.0001)         System time:  0.0699999984
(PID.TID 0000.0001)     Wall clock time:  0.703681946
(PID.TID 0000.0001)          No. starts: 1
(PID.TID 0000.0001)           No. stops: 1
(PID.TID 0000.0001)   Seconds in section "INITIALISE_VARIA   [ECCO SPIN-UP]":
(PID.TID 0000.0001)           User time:  0.599999994
(PID.TID 0000.0001)         System time:  0.0699999984
(PID.TID 0000.0001)     Wall clock time:  0.689332962
(PID.TID 0000.0001)          No. starts: 1
(PID.TID 0000.0001)           No. stops: 1
(PID.TID 0000.0001)   Seconds in section "I/O (WRITE)        [ECCO SPIN-UP]":
(PID.TID 0000.0001)           User time:  0.00999999046
(PID.TID 0000.0001)         System time:  0.
(PID.TID 0000.0001)     Wall clock time:  0.0138230324
(PID.TID 0000.0001)          No. starts: 1
(PID.TID 0000.0001)           No. stops: 1
(PID.TID 0000.0001)   Seconds in section "COST_FORCING       [ECCO SPIN-UP]":
(PID.TID 0000.0001)           User time:  0.
(PID.TID 0000.0001)         System time:  0.
(PID.TID 0000.0001)     Wall clock time:  5.50746918E-05
(PID.TID 0000.0001)          No. starts: 1
(PID.TID 0000.0001)           No. stops: 1
(PID.TID 0000.0001)   Seconds in section "ECCO MAIN LOOP":
(PID.TID 0000.0001)           User time:  158.060002
(PID.TID 0000.0001)         System time:  1.07999997
(PID.TID 0000.0001)     Wall clock time:  161.560189
(PID.TID 0000.0001)          No. starts: 1
(PID.TID 0000.0001)           No. stops: 1
(PID.TID 0000.0001)   Seconds in section "COST_AVERAGESFIELDS [ECCO MAIN]":
(PID.TID 0000.0001)           User time:  0.0299930573
(PID.TID 0000.0001)         System time:  0.
(PID.TID 0000.0001)     Wall clock time:  0.0506134033
(PID.TID 0000.0001)          No. starts: 726
(PID.TID 0000.0001)           No. stops: 726
(PID.TID 0000.0001)   Seconds in section "EXF_GETFORCING     [ECCO MAIN]":
(PID.TID 0000.0001)           User time:  4.27006912
(PID.TID 0000.0001)         System time:  0.449999861
(PID.TID 0000.0001)     Wall clock time:  4.66664302
(PID.TID 0000.0001)          No. starts: 726
(PID.TID 0000.0001)           No. stops: 726
(PID.TID 0000.0001)   Seconds in section "DYNAMICS           [ECCO MAIN]":
(PID.TID 0000.0001)           User time:  143.899991
(PID.TID 0000.0001)         System time:  0.240000039
(PID.TID 0000.0001)     Wall clock time:  146.440261
(PID.TID 0000.0001)          No. starts: 726
(PID.TID 0000.0001)           No. stops: 726
(PID.TID 0000.0001)   Seconds in section "KPP_CALC               [DYNAMICS]":
(PID.TID 0000.0001)           User time:  41.7300017
(PID.TID 0000.0001)         System time:  0.0499999821
(PID.TID 0000.0001)     Wall clock time:  42.465327
(PID.TID 0000.0001)          No. starts: 727
(PID.TID 0000.0001)           No. stops: 727
(PID.TID 0000.0001)   Seconds in section "STATEKPP      [KPP_CALC]":
(PID.TID 0000.0001)           User time:  4.80992031
(PID.TID 0000.0001)         System time:  0.
(PID.TID 0000.0001)     Wall clock time:  5.02831483
(PID.TID 0000.0001)          No. starts: 727
(PID.TID 0000.0001)           No. stops: 727
(PID.TID 0000.0001)   Seconds in section "KPPMIX [KPP_CALC]":
(PID.TID 0000.0001)           User time:  24.3199483
(PID.TID 0000.0001)         System time:  0.0300000012
(PID.TID 0000.0001)     Wall clock time:  24.4879686
(PID.TID 0000.0001)          No. starts: 727
(PID.TID 0000.0001)           No. stops: 727
(PID.TID 0000.0001)   Seconds in section "I/O (WRITE)        [ECCO MAIN]":
(PID.TID 0000.0001)           User time:  1.49996692
(PID.TID 0000.0001)         System time:  0.0199999809
(PID.TID 0000.0001)     Wall clock time:  1.47813118
(PID.TID 0000.0001)          No. starts: 2178
(PID.TID 0000.0001)           No. stops: 2178
(PID.TID 0000.0001)   Seconds in section "SOLVE_FOR_PRESSURE [ECCO MAIN]":
(PID.TID 0000.0001)           User time:  4.80001903
(PID.TID 0000.0001)         System time:  0.0400000513
(PID.TID 0000.0001)     Wall clock time:  4.82246554
(PID.TID 0000.0001)          No. starts: 726
(PID.TID 0000.0001)           No. stops: 726
(PID.TID 0000.0001)   Seconds in section "BLOCKING_EXCHANGES [ECCO MAIN]":
(PID.TID 0000.0001)           User time:  2.27994585
(PID.TID 0000.0001)         System time:  0.00999999046
(PID.TID 0000.0001)     Wall clock time:  2.42585361
(PID.TID 0000.0001)          No. starts: 726
(PID.TID 0000.0001)           No. stops: 726
(PID.TID 0000.0001)   Seconds in section "ECCO SPIN-DOWN":
(PID.TID 0000.0001)           User time:  0.
(PID.TID 0000.0001)         System time:  0.
(PID.TID 0000.0001)     Wall clock time:  0.00059902668
(PID.TID 0000.0001)          No. starts: 1
(PID.TID 0000.0001)           No. stops: 1
(PID.TID 0000.0001)   Seconds in section "COST_AVERAGESFIELDS [ECCO SPIN-DOWN]":
(PID.TID 0000.0001)           User time:  0.
(PID.TID 0000.0001)         System time:  0.
(PID.TID 0000.0001)     Wall clock time:  0.000105977058
(PID.TID 0000.0001)          No. starts: 1
(PID.TID 0000.0001)           No. stops: 1
(PID.TID 0000.0001)   Seconds in section "COST_HYD           [ECCO SPIN-DOWN]":
(PID.TID 0000.0001)           User time:  0.
(PID.TID 0000.0001)         System time:  0.
(PID.TID 0000.0001)     Wall clock time:  5.60283661E-05
(PID.TID 0000.0001)          No. starts: 1
(PID.TID 0000.0001)           No. stops: 1
(PID.TID 0000.0001)   Seconds in section "COST_FINAL         [ECCO SPIN-DOWN]":
(PID.TID 0000.0001)           User time:  0.
(PID.TID 0000.0001)         System time:  0.
(PID.TID 0000.0001)     Wall clock time:  9.40561295E-05
(PID.TID 0000.0001)          No. starts: 1
(PID.TID 0000.0001)           No. stops: 1
(PID.TID 0000.0001)   Seconds in section "COST_AVERAGESFINAL [ECCO SPIN-DOWN]":
(PID.TID 0000.0001)           User time:  0.
(PID.TID 0000.0001)         System time:  0.
(PID.TID 0000.0001)     Wall clock time:  5.60283661E-05
(PID.TID 0000.0001)          No. starts: 1
(PID.TID 0000.0001)           No. stops: 1
(PID.TID 0000.0001)   Seconds in section "SPIN-DOWN":
(PID.TID 0000.0001)           User time:  0.300003052
(PID.TID 0000.0001)         System time:  0.0400000811
(PID.TID 0000.0001)     Wall clock time:  0.351930976
(PID.TID 0000.0001)          No. starts: 1
(PID.TID 0000.0001)           No. stops: 1
(PID.TID 0000.0001)   Seconds in section "CTRL_FINALISE [SPIN-DOWN]":
(PID.TID 0000.0001)           User time:  0.0399932861
(PID.TID 0000.0001)         System time:  0.00999999046
(PID.TID 0000.0001)     Wall clock time:  0.0458129644
(PID.TID 0000.0001)          No. starts: 1
(PID.TID 0000.0001)           NSTOP NORMAL END statement executed
o. stops: 1
(PID.TID 0000.0001)   Seconds in section "I/O (WRITE)         [SPIN-DOWN]":
(PID.TID 0000.0001)           User time:  0.0700073242
(PID.TID 0000.0001)         System time:  0.0300000906
(PID.TID 0000.0001)     Wall clock time:  0.110794067
(PID.TID 0000.0001)          No. starts: 2
(PID.TID 0000.0001)           No. stops: 2
(PID.TID 0000.0001)   Seconds in section "DYNAMICS            [SPIN-DOWN]":
(PID.TID 0000.0001)           User time:  0.190002441
(PID.TID 0000.0001)         System time:  0.
(PID.TID 0000.0001)     Wall clock time:  0.194929004
(PID.TID 0000.0001)          No. starts: 1
(PID.TID 0000.0001)           No. stops: 1
(PID.TID 0000.0001) // ======================================================
(PID.TID 0000.0001) // Tile <-> Tile communication statistics
(PID.TID 0000.0001) // ======================================================
(PID.TID 0000.0001) // o Tile number: 000001
(PID.TID 0000.0001) //         No. X exchanges =          79201
(PID.TID 0000.0001) //            Max. X spins =              1
(PID.TID 0000.0001) //            Min. X spins =              1
(PID.TID 0000.0001) //          Total. X spins =          79201
(PID.TID 0000.0001) //            Avg. X spins =       1.00E+00
(PID.TID 0000.0001) //         No. Y exchanges =          79201
(PID.TID 0000.0001) //            Max. Y spins =              1
(PID.TID 0000.0001) //            Min. Y spins =              1
(PID.TID 0000.0001) //          Total. Y spins =          79201
(PID.TID 0000.0001) //            Avg. Y spins =       1.00E+00
(PID.TID 0000.0001) // o Thread number: 000001
(PID.TID 0000.0001) //            No. barriers =              0
(PID.TID 0000.0001) //      Max. barrier spins =              0
(PID.TID 0000.0001) //      Min. barrier spins =     1000000000
(PID.TID 0000.0001) //     Total barrier spins =              0
(PID.TID 0000.0001) //      Avg. barrier spins =       0.00E+00
