(PID.TID 0000.0001) 
(PID.TID 0000.0001) // ======================================================
(PID.TID 0000.0001) //                      MITgcm UV
(PID.TID 0000.0001) //                      =========
(PID.TID 0000.0001) // ======================================================
(PID.TID 0000.0001) // execution environment starting up...
(PID.TID 0000.0001) // Run starting Wed Apr  1 14:19:48 1998
(PID.TID 0000.0001) // on melville.lcs.mit.edu
(PID.TID 0000.0001) // account cnh
(PID.TID 0000.0001) // MITgcm UV Release: $Name$
(PID.TID 0000.0001) 
(PID.TID 0000.0001) // =======================================================
(PID.TID 0000.0001) // Execution Environment parameter file "eedata"
(PID.TID 0000.0001) // =======================================================
(PID.TID 0000.0001) ># Example "eedata" file
(PID.TID 0000.0001) ># Lines beginning "#" are comments
(PID.TID 0000.0001) ># nTx - No. threads per process in X
(PID.TID 0000.0001) ># nTy - No. threads per process in Y
(PID.TID 0000.0001) > &EEPARMS
(PID.TID 0000.0001) > &
(PID.TID 0000.0001) ># Note: Some systems use & as the
(PID.TID 0000.0001) ># namelist terminator. Other systems
(PID.TID 0000.0001) ># use a / character (as shown here).
(PID.TID 0000.0001) 
(PID.TID 0000.0001) // =======================================================
(PID.TID 0000.0001) // Computational Grid Specification ( see files "SIZE.h" )
(PID.TID 0000.0001) //                                  ( and "eedata"       )
(PID.TID 0000.0001) // =======================================================
(PID.TID 0000.0001)      nPx =    1 ; /* No. processes in X */
(PID.TID 0000.0001)      nPy =    1 ; /* No. processes in Y */
(PID.TID 0000.0001)      nSx =    1 ; /* No. tiles in X per process */
(PID.TID 0000.0001)      nSy =    1 ; /* No. tiles in Y per process */
(PID.TID 0000.0001)      sNx =  128 ; /* Tile size in X */
(PID.TID 0000.0001)      sNy =   64 ; /* Tile size in Y */
(PID.TID 0000.0001)      OLx =    5 ; /* Tile overlap distance in X */
(PID.TID 0000.0001)      OLy =    5 ; /* Tile overlap distance in Y */
(PID.TID 0000.0001)      nTx =    1 ; /* No. threads in X per process */
(PID.TID 0000.0001)      nTy =    1 ; /* No. threads in Y per process */
(PID.TID 0000.0001)       Nr =    5 ; /* No. levels in the vertical   */
(PID.TID 0000.0001)       nX =  128 ; /* Total domain size in X ( = nPx*nSx*sNx ) */
(PID.TID 0000.0001)       nY =   64 ; /* Total domain size in Y ( = nPy*nSy*sNy ) */
(PID.TID 0000.0001)   nTiles =    1 ; /* Total no. tiles per process ( = nSx*nSy ) */
(PID.TID 0000.0001)   nProcs =    1 ; /* Total no. processes ( = nPx*nPy ) */
(PID.TID 0000.0001) nThreads =    1 ; /* Total no. threads per process ( = nTx*nTy ) */
(PID.TID 0000.0001) usingMPI =    F ; /* Flag used to control whether MPI is in use */
(PID.TID 0000.0001)                   /*  note: To execute a program with MPI calls */
(PID.TID 0000.0001)                   /*  it must be launched appropriately e.g     */
(PID.TID 0000.0001)                   /*  "mpirun -np 64 ......"                    */
(PID.TID 0000.0001) 
(PID.TID 0000.0001) // ======================================================
(PID.TID 0000.0001) // Mapping of tiles to threads
(PID.TID 0000.0001) // ======================================================
(PID.TID 0000.0001) // -o- Thread   1, tiles (   1:   1,   1:   1)
(PID.TID 0000.0001) 
(PID.TID 0000.0001) // ======================================================
(PID.TID 0000.0001) // Tile <-> Tile connectvity table
(PID.TID 0000.0001) // ======================================================
(PID.TID 0000.0001) // Tile number: 000001 (process no. = 000001)
(PID.TID 0000.0001) //        WEST: Tile = 000001, Process = 000001, Comm = put
(PID.TID 0000.0001) //                bi = 000001, bj = 000001
(PID.TID 0000.0001) //        EAST: Tile = 000001, Process = 000001, Comm = put
(PID.TID 0000.0001) //                bi = 000001, bj = 000001
(PID.TID 0000.0001) //       SOUTH: Tile = 000001, Process = 000001, Comm = put
(PID.TID 0000.0001) //                bi = 000001, bj = 000001
(PID.TID 0000.0001) //       NORTH: Tile = 000001, Process = 000001, Comm = put
(PID.TID 0000.0001) //                bi = 000001, bj = 000001
(PID.TID 0000.0001) 
(PID.TID 0000.0001) // =======================================================
(PID.TID 0000.0001) // Model parameter file "data"
(PID.TID 0000.0001) // =======================================================
(PID.TID 0000.0001) ># ====================
(PID.TID 0000.0001) ># | Model parameters |
(PID.TID 0000.0001) ># ====================
(PID.TID 0000.0001) >#
(PID.TID 0000.0001) ># Continuous equation parameters
(PID.TID 0000.0001) > &PARM01
(PID.TID 0000.0001) > tRef=281.089, 289.321, 307.191, 331.377, 432.413,
(PID.TID 0000.0001) > sRef=5*0.,
(PID.TID 0000.0001) > viscAr=0.E3,
(PID.TID 0000.0001) > viscAh=0.E6,
(PID.TID 0000.0001) > viscA4=0.E17,
(PID.TID 0000.0001) > no_slip_sides=.FALSE.,
(PID.TID 0000.0001) > no_slip_bottom=.FALSE.,
(PID.TID 0000.0001) > diffKhT=0.E3,
(PID.TID 0000.0001) > diffKrT=0.,
(PID.TID 0000.0001) > diffK4T=0.E17,
(PID.TID 0000.0001) > diffKrS=0.E2,
(PID.TID 0000.0001) > diffKhS=0.E3,
(PID.TID 0000.0001) > diffK4S=0.E17,
(PID.TID 0000.0001) > buoyancyRelation='ATMOSPHERIC',
(PID.TID 0000.0001) > eosType='IDEALGAS',
(PID.TID 0000.0001) > gravity=9.81,
(PID.TID 0000.0001) > rhonil=1.0,
(PID.TID 0000.0001) > rhoConst=1.0,
(PID.TID 0000.0001) > rigidLid=.FALSE.,
(PID.TID 0000.0001) > implicitFreeSurface=.TRUE.,
(PID.TID 0000.0001) > staggerTimeStep=.TRUE.,
(PID.TID 0000.0001) > nonHydrostatic=.FALSE.,
(PID.TID 0000.0001) > readBinaryPrec=64,
(PID.TID 0000.0001) > writeBinaryPrec=64,
(PID.TID 0000.0001) > hFacMin=1.0,
(PID.TID 0000.0001) > nShap=4,
(PID.TID 0000.0001) > zonal_filt_lat=45.0,
(PID.TID 0000.0001) > &
(PID.TID 0000.0001) >
(PID.TID 0000.0001) ># Elliptic solver parameters
(PID.TID 0000.0001) > &PARM02
(PID.TID 0000.0001) > cg2dMaxIters=200,
(PID.TID 0000.0001) >#cg2dTargetResidual=1.E-12,
(PID.TID 0000.0001) > cg2dTargetResWunit=1.E-17,
(PID.TID 0000.0001) > &
(PID.TID 0000.0001) >
(PID.TID 0000.0001) ># Time stepping parameters
(PID.TID 0000.0001) > &PARM03
(PID.TID 0000.0001) > niter0=0,
(PID.TID 0000.0001) > nTimeSteps=24,
(PID.TID 0000.0001) >#endTime=31104000.,
(PID.TID 0000.0001) > deltaT=300.0,
(PID.TID 0000.0001) > abEps=0.1,
(PID.TID 0000.0001) > cAdjFreq=0.,
(PID.TID 0000.0001) > pChkptFreq=2592000.0,
(PID.TID 0000.0001) > chkptFreq=0.0,
(PID.TID 0000.0001) > dumpFreq=2592000.0,
(PID.TID 0000.0001) > taveFreq=2592000.0,
(PID.TID 0000.0001) > &
(PID.TID 0000.0001) >
(PID.TID 0000.0001) ># Gridding parameters
(PID.TID 0000.0001) > &PARM04
(PID.TID 0000.0001) > usingCartesianGrid=.FALSE.,
(PID.TID 0000.0001) > usingSphericalPolarGrid=.TRUE.,
(PID.TID 0000.0001) > delX=128*2.8125,
(PID.TID 0000.0001) > delY=64*2.8125,
(PID.TID 0000.0001) > delR=1.E4, 2.5E4, 3.E4, 2.E4, 1.5E4,
(PID.TID 0000.0001) > Ro_SeaLevel=1.E5,
(PID.TID 0000.0001) > groundAtK1=.TRUE.,
(PID.TID 0000.0001) > phiMin=-90.,
(PID.TID 0000.0001) > rSphere=6370.E3,
(PID.TID 0000.0001) > &
(PID.TID 0000.0001) >
(PID.TID 0000.0001) ># Input datasets
(PID.TID 0000.0001) > &PARM05
(PID.TID 0000.0001) > bathyFile='orography_fullcell.bin',
(PID.TID 0000.0001) > &
(PID.TID 0000.0001) 
(PID.TID 0000.0001)  MDSREADFIELD: opening global file: orography_fullcell.bin
(PID.TID 0000.0001) // =======================================================
(PID.TID 0000.0001) // Field Model depths (ini_depths) at iteration          1
(PID.TID 0000.0001) // CMIN =          6.500000000000000E+04
(PID.TID 0000.0001) // CMAX =          1.000000000000000E+05
(PID.TID 0000.0001) // CINT =          1.296296296296296E+03
(PID.TID 0000.0001) // SYMBOLS (CMIN->CMAX): -abcdefghijklmnopqrstuvwxyz+
(PID.TID 0000.0001) //                  0.0: .
(PID.TID 0000.0001) // RANGE I (Lo:Hi:Step):(  -4: 133:   1)
(PID.TID 0000.0001) // RANGE J (Lo:Hi:Step):(  69:  -4:  -1)
(PID.TID 0000.0001) // RANGE K (Lo:Hi:Step):(   1:   1:   1)
(PID.TID 0000.0001) // =======================================================
(PID.TID 0000.0001) K =   1
(PID.TID 0000.0001) //                I=5       I=15      I=25      I=35      I=45      I=55      I=65      I=75      I=85      I=95      I=105     I=115     I=125
(PID.TID 0000.0001) // |--J--|****01234|678901234|678901234|678901234|678901234|678901234|678901234|678901234|678901234|678901234|678901234|678901234|678901234|67890123
(PID.TID 0000.0001) //     69 ..........................................................................................................................................
(PID.TID 0000.0001) //     68 ..........................................................................................................................................
(PID.TID 0000.0001) //     67 ..........................................................................................................................................
(PID.TID 0000.0001) //     66 ..........................................................................................................................................
(PID.TID 0000.0001) //     65 ..........................................................................................................................................
(PID.TID 0000.0001) //     64 ++++++++++++++++++++++++++++++++++++++++++++++++++++++++++++++++++++++++++++++++++++++++++++++++++++++++++++++++++++++++++++++++++++++++++
(PID.TID 0000.0001) //     63 ++++++++++++++++++++++++++++++++++++++++++++++++++++++++++++++++++++++++++++++++++++++++++++++++++++++++++++++++++++++++++++++++++++++++++
(PID.TID 0000.0001) //     62 +++++++++++++++++++++++++++++++++++++++++++++++++++++++++++++++++++++++++++++++++++++++++++++++++++++++++ss+++++++++++++s+++++++++++++++++
(PID.TID 0000.0001) //     61 +++++++++++++++++++++++++++++++++++++++++++++++++++++++++++++++++++++++++++++++++++++++++++++++++++++sssssss++ssssssssssssssss++++++++++++
(PID.TID 0000.0001) //     60 +++++++++++++++++++++++++++++++++++++++++++++++++++++++++++++++++++++++++++++++++++++++++++++++++++++++ss+++sssss---------sss+++++++++++++
(PID.TID 0000.0001) //     59 +++++++++++++++++++++++++++++++++++++++++++++++++++++++++++++++++++++++++++++++++++++++++++++++++++++++++++++++++ss--------sss++++++++++++
(PID.TID 0000.0001) //     58 ++++++++++++++++++++++++++++++++++++++++++++++++++++++++++++++++++++++++++++++++++++++++++++++++++++++++++++++++++ss------ss++++++++++++++
(PID.TID 0000.0001) //     57 +++++++++++ss++++++++++++++++++++++++ssss+++++++++ss+ss++++++++++++s++++++++ssssssss+++++++++++++++++++++++++++++++ss----ss+++++++++++++++
(PID.TID 0000.0001) //     56 ++++++++++ss++++++++++++++++++++++++++sssssss+++++ssssssss+++sssss++++++++++++ss++sssss++++++++++++++++++++++++++++s--ss++++++++++++++++++
(PID.TID 0000.0001) //     55 ++++++++sss+++++++++++++++++++++++++++ssss++++++++++ssssssssssss++s+++++++++++sssssssssss++++++++++++++++++++++++++s-s++++++++++++++++++ss
(PID.TID 0000.0001) //     54 +++++++ss+++++++++++++++++++++++++++++s++ssssss++s+++sssssss++++++++++++++++++s++sssssssss+++++s+++++++++++++++++++++++++++++++++++++++ss+
(PID.TID 0000.0001) //     53 ++++++++++++++++++++++++++++++++++++++++++sssssssssssss++++++++++++++++++++++++++++++ssssssss+ss++++++++++++++++++++++++++++++++++++++++++
(PID.TID 0000.0001) //     52 ++++++++++++++++++++++++++++++++++++sssssssssssssssss++++++++s+++++++++++++++++++++++++sssssssss+++++++++++ssss+++++++++++++++++++++++++++
(PID.TID 0000.0001) //     51 +++++++++++++++++++++++++++++++++++sssssssssssssss+sss++++++++++++++++++++++++++++++++++sssssssss++++++++++ssss+++++++++++++++++++++++++++
(PID.TID 0000.0001) //     50 +++++++++ssss++++++++++++++++sssssss-ss-sssssssss+++++s++++++++++++++++++++++++++++++++++sssssssss+++++++++++++++++++++++++++++++++++++++s
(PID.TID 0000.0001) //     49 ++++++sssss++ss+++++++++++++++sssssssss--ssssssss++++s+++++++++++++++++++++++++++++++++++sssssssss++++++++++++++++++++++++++++++++++++ssss
(PID.TID 0000.0001) //     48 +++++s+++++sss+++++sss+++++++ssss--sssssssssssss++ss+++++++++++++++++++++++++++++++++++++ssss-sssss++++++++++++++++++++++++++++++++++s++++
(PID.TID 0000.0001) //     47 ++ssss++++++s+++ssssss+++++++ss--sssssssssssssss+ss++++++++++++++++++++++++++++++++++++++sssss--sss+++++++++++++++++++++++++++++++ssss++++
(PID.TID 0000.0001) //     46 +++s+++++++++++sssssss+++s++ss---ss-------ssss++++++++++++++++++++++++++++++++++++++++++++ssss--ss++++++s++++++++++++++++++++++++++s++++++
(PID.TID 0000.0001) //     45 +++++sss++++++++++s++sssssss--------------sss+++++++++++++++++++++++++++++++++++++++++++++ssssssss+++++s+++++++++++++++++++++++++++++sss++
(PID.TID 0000.0001) //     44 ++sssss+++++++++++ss++s-ssssss+s----------sss++++++++++++++++++++++++++++++++++++++++++++++++sssss++++++++++++++++++++++++++++++++sssss+++
(PID.TID 0000.0001) //     43 ++ssss++ss+++++++ssss++sssssss+++s--------+ss++++++++++++++++++++++++++++++++++++++++++++++++ssss+++++++++++++++++++++++++++++++++ssss++ss
(PID.TID 0000.0001) //     42 +s++++sssss+++++++ssss+++ssss++++++sssss--sss+s+++++++++++++++++++++++++++++++++++++++++++++++sss++++++++++++++++++++++++++++++++s++++ssss
(PID.TID 0000.0001) //     41 ++++++sssssssss++++sss+++++++++ss+ss++sssss++++++++++++++++++++++++++++++++++++++++++++++++++++sss++++++++++++++++++++++++++++++++++++ssss
(PID.TID 0000.0001) //     40 ++++++sssssssss++s+sss++++++++++++++++ssss++++++++++++++++++++++++++++++++++++++++++++++++++++++ss++++++++++++++++++++++++++++++++++++ssss
(PID.TID 0000.0001) //     39 ++++++ssss++sss++s++ssss+++++++ss+++++++ss++++++++++++++++++++++++++++++++++++++++++++++++++++++sss+++++++++++++++++++++++++++++++++++ssss
(PID.TID 0000.0001) //     38 ++++++++s+++sssssss+sss+++++++++s+++++++++++++++++++++++++++++++++++++++++++++++++++++++++++++++++++ss++++++++++++++++++++++++++++++++++s+
(PID.TID 0000.0001) //     37 +++++++s++++ssssssss++++++++++++s+++++++++++++++++++++++++++++++++++++++++++++++++++++++++++++++++++++s++++++++++++++++++++++++++++++++s++
(PID.TID 0000.0001) //     36 +ss++++sss++sss++s-ssss+++++++++++++++++++++++++++++++++++++++++++++++++++++++++++++++++++++++++++++++++++++s++++++++++++++++++++ss++++sss
(PID.TID 0000.0001) //     35 ++++++++ssssssss+sssss++++++++++++++++++++++++++++++++++++++++++++++++++++++++++++++++++++++++++++++++++++ss+s++++++++++++++++++++++++++ss
(PID.TID 0000.0001) //     34 +++++++++sssssssssss+++++++++++++++++++s++++++s+++++++++++++++++++++++++++++++++++++++++++++++++++++++++++s++sss+++++++++++++++++++++++++s
(PID.TID 0000.0001) //     33 +++++++++ss+++sssss++++++++++++++++++++++++++ss++++++++++++++++++++++++++++++++++++++++++++++++++++++++++ss++++++++++++++++++++++++++++++s
(PID.TID 0000.0001) //     32 +++++++++ss++sss+ss+++++++++++++++++++++++++++++++++++++++++++++++++++++++++++++++++++++++++++++++++++++ss+++++++++++++++++++++++++++++++s
(PID.TID 0000.0001) //     31 ++++++++++sssssssss++++++++++++++++++++++++++++++++++sss++++++++++++++++++++++++++++++++++++++++++++++++ss++++++++++++++++++++++++++++++++
(PID.TID 0000.0001) //     30 ++++++++++sssssssss+++++++++++++++++++++++++++++++++++++s++++++++++++++++++++++++++++++++++++++++++++++++s++++++++++++s+++++++++++++++++++
(PID.TID 0000.0001) //     29 ++++++++++sssssssss++++++++++++++++++++++++++++++++++++++++++++++++++++++++++++++++++++++++++++++++++++++-s+++++++++sss+++++++++++++++++++
(PID.TID 0000.0001) //     28 ++++++++++sssssssss++++++++++++++++++++++++++++++++++++++++++++++++++++++++++++++++++++++++++++++++++++++s-s++++++++sss+++++++++++++++++++
(PID.TID 0000.0001) //     27 +++++++++ssssssssss+++s+++++++++++++++++++++++++++++++++++++++++++++++++++++++++++++++++++++++++++++++++++s--s+++s+ssss++++++++++++++++++s
(PID.TID 0000.0001) //     26 +++++++++ssssssss++++s++++++++++++++++++++++++++++++++++s+++++++++++++++++++++++++++++++++++++++++++++++++++--s+++ssss+++++++++++++++++++s
(PID.TID 0000.0001) //     25 ++++++++++sssssss++++s+++++++++++++++++++++++++++++ss+++++++++++++++++++++++++++++++++++++++++++++++++++++++--s++++sss++++++++++++++++++++
(PID.TID 0000.0001) //     24 ++++++++++ssssss+++++s++++++++++++++++++++++++sss+sss+++++++++++++++++++++++++++++++++++++++++++++++++++++++--++++ss++++++++++++++++++++++
(PID.TID 0000.0001) //     23 ++++++++++ssssss+++++++++++++++++++++++++++++++sssss++++++++++++++++++++++++++++++++++++++++++++++++++++++++--++++ss++++++++++++++++++++++
(PID.TID 0000.0001) //     22 +++++++++++sssss+++++++++++++++++++++++++++++++ss+++++++++s+++++++++++++++++++++++++++++++++++++++++++++++++-s++++++++++++++++++++++++++++
(PID.TID 0000.0001) //     21 ++++++++++++sss+++++++++++++++++++++++++++++++++++++++++++s++++++++++++++++++++++++++++++++++++++++++++++++sss++++++++++++++++++++++++++++
(PID.TID 0000.0001) //     20 +++++++++++++++++++++++++++++++++++++++++++++++++++++++++s+++++++++++++++++++++++++++++++++++++++++++++++++ss+++++++++++++++++++++++++++++
(PID.TID 0000.0001) //     19 +++++++++++++++++++++++++++++++++++++++++++++++++++++++++++++++++++++++++++++++++++++++++++++++++++++++++++ss+++++++++++++++++++++++++++++
(PID.TID 0000.0001) //     18 +++++++++++++++++++++++++++++++++++++++++++++++++++++++++++++++++++++++++++++++++++++++++++++++++++++++++++ss+++++++++++++++++++++++++++++
(PID.TID 0000.0001) //     17 +++++++++++++++++++++++++++++++++++++++++++++++++++++++++++++++++++++++++++++++++++++++++++++++++++++++++++ss+++++++++++++++++++++++++++++
(PID.TID 0000.0001) //     16 +++++++++++++++++++++++++++++++++++++++++++++++++++++++++++++++++++++++++++++++++++++++++++++++++++++++++++ss+++++++++++++++++++++++++++++
(PID.TID 0000.0001) //     15 ++++++++++++++++++++++++++++++++++++++++++++++++++++++++++++++++++++++++++++++++++++++++++++++++++++++++++ss++++++++++++++++++++++++++++++
(PID.TID 0000.0001) //     14 ++++++++++++++++++++++++++++++++++++++++++++++++++++++++++++++++++++++++++++++++++++++++++++++++++++++++++++++++++++++++++++++++++++++++++
(PID.TID 0000.0001) //     13 ++++++++++++++++++++++++++++++++++++++++++++++++++++++++++++++++++++++++++++++++++++++++++++++++++++++++++++++++++++++++++++++++++++++++++
(PID.TID 0000.0001) //     12 ++++++++++++++++++++++++++++++++++++++++++++++++++++++++++++++++++++++++++++++++++++++++++++++++++++++++++++++++++++++++++++++++++++++++++
(PID.TID 0000.0001) //     11 ++++++++++++++++++++++++++++++++++++++++++++++++++++++++++++++++++++++++++++++++++++++++++++++++++++++++++++++++++++++++++++++++++++++++++
(PID.TID 0000.0001) //     10 ++++++++++++++++++++++++++++++++++++++++++++++++++++++++++++++++++++++++++++++++++++++++++++++++++++++++++++++++++++++++++++++++++++++++++
(PID.TID 0000.0001) //      9 +++++++++++++++++++++++++++++++++++++++++s++++++++++++++++++++++++++++++++++++++++++++++++++++++++++++++++++++++++++++++++++++++++++++++++
(PID.TID 0000.0001) //      8 ++++++++++++++++++++ssss-ssss++++ssss-------ssssssss---sssss+++++++++++++++++++++++++++++++++++++++++++++++++s++++++++++++++++++++++++++++
(PID.TID 0000.0001) //      7 ++sssssssssssssssss--------sssss--------------------------sssssss+++++++++++++++++++++++++++++++++++++++++++sss+++++++++++++++++++ssssssss
(PID.TID 0000.0001) //      6 s-------------------------ssss------------------------------ssss++++++++++++++++++++++++++++++++++sssssssssssss++++++++++++++ssss---------
(PID.TID 0000.0001) //      5 -------------------------------------------------------------ss++++++++++++++++++sssssssssssssssssssssss++++++++++++++++++ssss------------
(PID.TID 0000.0001) //      4 ----------------------------------------------------------ssss++++++++++++++++++++sssssssssssssss---sssss+++++++++++++++++ssss------------
(PID.TID 0000.0001) //      3 ------------------------------------------------------------ssssss++++++++++++++++ssssssssssssss----sssssssss+++sssssssssssss-------------
(PID.TID 0000.0001) //      2 -----------------------------------------------------------------------sssssssssssssssssssssssssssssssssssssssssssssssss------------------
(PID.TID 0000.0001) //      1 ------------------------------------------------------------------------------------------------------------------------------------------
(PID.TID 0000.0001) //      0 ..........................................................................................................................................
(PID.TID 0000.0001) //     -1 ..........................................................................................................................................
(PID.TID 0000.0001) //     -2 ..........................................................................................................................................
(PID.TID 0000.0001) //     -3 ..........................................................................................................................................
(PID.TID 0000.0001) //     -4 ..........................................................................................................................................
(PID.TID 0000.0001) // =======================================================
(PID.TID 0000.0001) // END OF FIELD                                          =
(PID.TID 0000.0001) // =======================================================
(PID.TID 0000.0001) 
(PID.TID 0000.0001) // =======================================================
(PID.TID 0000.0001) // Field Model Depths K Index at iteration          1
(PID.TID 0000.0001) // CMIN =          3.000000000000000E+00
(PID.TID 0000.0001) // CMAX =          5.000000000000000E+00
(PID.TID 0000.0001) // CINT =          7.407407407407407E-02
(PID.TID 0000.0001) // SYMBOLS (CMIN->CMAX): -abcdefghijklmnopqrstuvwxyz+
(PID.TID 0000.0001) //                  0.0: .
(PID.TID 0000.0001) // RANGE I (Lo:Hi:Step):(  -4: 133:   1)
(PID.TID 0000.0001) // RANGE J (Lo:Hi:Step):(  69:  -4:  -1)
(PID.TID 0000.0001) // RANGE K (Lo:Hi:Step):(   1:   1:   1)
(PID.TID 0000.0001) // =======================================================
(PID.TID 0000.0001) K =   1
(PID.TID 0000.0001) //                I=5       I=15      I=25      I=35      I=45      I=55      I=65      I=75      I=85      I=95      I=105     I=115     I=125
(PID.TID 0000.0001) // |--J--|****01234|678901234|678901234|678901234|678901234|678901234|678901234|678901234|678901234|678901234|678901234|678901234|678901234|67890123
(PID.TID 0000.0001) //     69 ..........................................................................................................................................
(PID.TID 0000.0001) //     68 ..........................................................................................................................................
(PID.TID 0000.0001) //     67 ..........................................................................................................................................
(PID.TID 0000.0001) //     66 ..........................................................................................................................................
(PID.TID 0000.0001) //     65 ..........................................................................................................................................
(PID.TID 0000.0001) //     64 ++++++++++++++++++++++++++++++++++++++++++++++++++++++++++++++++++++++++++++++++++++++++++++++++++++++++++++++++++++++++++++++++++++++++++
(PID.TID 0000.0001) //     63 ++++++++++++++++++++++++++++++++++++++++++++++++++++++++++++++++++++++++++++++++++++++++++++++++++++++++++++++++++++++++++++++++++++++++++
(PID.TID 0000.0001) //     62 +++++++++++++++++++++++++++++++++++++++++++++++++++++++++++++++++++++++++++++++++++++++++++++++++++++++++nn+++++++++++++n+++++++++++++++++
(PID.TID 0000.0001) //     61 +++++++++++++++++++++++++++++++++++++++++++++++++++++++++++++++++++++++++++++++++++++++++++++++++++++nnnnnnn++nnnnnnnnnnnnnnnn++++++++++++
(PID.TID 0000.0001) //     60 +++++++++++++++++++++++++++++++++++++++++++++++++++++++++++++++++++++++++++++++++++++++++++++++++++++++nn+++nnnnn---------nnn+++++++++++++
(PID.TID 0000.0001) //     59 +++++++++++++++++++++++++++++++++++++++++++++++++++++++++++++++++++++++++++++++++++++++++++++++++++++++++++++++++nn--------nnn++++++++++++
(PID.TID 0000.0001) //     58 ++++++++++++++++++++++++++++++++++++++++++++++++++++++++++++++++++++++++++++++++++++++++++++++++++++++++++++++++++nn------nn++++++++++++++
(PID.TID 0000.0001) //     57 +++++++++++nn++++++++++++++++++++++++nnnn+++++++++nn+nn++++++++++++n++++++++nnnnnnnn+++++++++++++++++++++++++++++++nn----nn+++++++++++++++
(PID.TID 0000.0001) //     56 ++++++++++nn++++++++++++++++++++++++++nnnnnnn+++++nnnnnnnn+++nnnnn++++++++++++nn++nnnnn++++++++++++++++++++++++++++n--nn++++++++++++++++++
(PID.TID 0000.0001) //     55 ++++++++nnn+++++++++++++++++++++++++++nnnn++++++++++nnnnnnnnnnnn++n+++++++++++nnnnnnnnnnn++++++++++++++++++++++++++n-n++++++++++++++++++nn
(PID.TID 0000.0001) //     54 +++++++nn+++++++++++++++++++++++++++++n++nnnnnn++n+++nnnnnnn++++++++++++++++++n++nnnnnnnnn+++++n+++++++++++++++++++++++++++++++++++++++nn+
(PID.TID 0000.0001) //     53 ++++++++++++++++++++++++++++++++++++++++++nnnnnnnnnnnnn++++++++++++++++++++++++++++++nnnnnnnn+nn++++++++++++++++++++++++++++++++++++++++++
(PID.TID 0000.0001) //     52 ++++++++++++++++++++++++++++++++++++nnnnnnnnnnnnnnnnn++++++++n+++++++++++++++++++++++++nnnnnnnnn+++++++++++nnnn+++++++++++++++++++++++++++
(PID.TID 0000.0001) //     51 +++++++++++++++++++++++++++++++++++nnnnnnnnnnnnnnn+nnn++++++++++++++++++++++++++++++++++nnnnnnnnn++++++++++nnnn+++++++++++++++++++++++++++
(PID.TID 0000.0001) //     50 +++++++++nnnn++++++++++++++++nnnnnnn-nn-nnnnnnnnn+++++n++++++++++++++++++++++++++++++++++nnnnnnnnn+++++++++++++++++++++++++++++++++++++++n
(PID.TID 0000.0001) //     49 ++++++nnnnn++nn+++++++++++++++nnnnnnnnn--nnnnnnnn++++n+++++++++++++++++++++++++++++++++++nnnnnnnnn++++++++++++++++++++++++++++++++++++nnnn
(PID.TID 0000.0001) //     48 +++++n+++++nnn+++++nnn+++++++nnnn--nnnnnnnnnnnnn++nn+++++++++++++++++++++++++++++++++++++nnnn-nnnnn++++++++++++++++++++++++++++++++++n++++
(PID.TID 0000.0001) //     47 ++nnnn++++++n+++nnnnnn+++++++nn--nnnnnnnnnnnnnnn+nn++++++++++++++++++++++++++++++++++++++nnnnn--nnn+++++++++++++++++++++++++++++++nnnn++++
(PID.TID 0000.0001) //     46 +++n+++++++++++nnnnnnn+++n++nn---nn-------nnnn++++++++++++++++++++++++++++++++++++++++++++nnnn--nn++++++n++++++++++++++++++++++++++n++++++
(PID.TID 0000.0001) //     45 +++++nnn++++++++++n++nnnnnnn--------------nnn+++++++++++++++++++++++++++++++++++++++++++++nnnnnnnn+++++n+++++++++++++++++++++++++++++nnn++
(PID.TID 0000.0001) //     44 ++nnnnn+++++++++++nn++n-nnnnnn+n----------nnn++++++++++++++++++++++++++++++++++++++++++++++++nnnnn++++++++++++++++++++++++++++++++nnnnn+++
(PID.TID 0000.0001) //     43 ++nnnn++nn+++++++nnnn++nnnnnnn+++n--------+nn++++++++++++++++++++++++++++++++++++++++++++++++nnnn+++++++++++++++++++++++++++++++++nnnn++nn
(PID.TID 0000.0001) //     42 +n++++nnnnn+++++++nnnn+++nnnn++++++nnnnn--nnn+n+++++++++++++++++++++++++++++++++++++++++++++++nnn++++++++++++++++++++++++++++++++n++++nnnn
(PID.TID 0000.0001) //     41 ++++++nnnnnnnnn++++nnn+++++++++nn+nn++nnnnn++++++++++++++++++++++++++++++++++++++++++++++++++++nnn++++++++++++++++++++++++++++++++++++nnnn
(PID.TID 0000.0001) //     40 ++++++nnnnnnnnn++n+nnn++++++++++++++++nnnn++++++++++++++++++++++++++++++++++++++++++++++++++++++nn++++++++++++++++++++++++++++++++++++nnnn
(PID.TID 0000.0001) //     39 ++++++nnnn++nnn++n++nnnn+++++++nn+++++++nn++++++++++++++++++++++++++++++++++++++++++++++++++++++nnn+++++++++++++++++++++++++++++++++++nnnn
(PID.TID 0000.0001) //     38 ++++++++n+++nnnnnnn+nnn+++++++++n+++++++++++++++++++++++++++++++++++++++++++++++++++++++++++++++++++nn++++++++++++++++++++++++++++++++++n+
(PID.TID 0000.0001) //     37 +++++++n++++nnnnnnnn++++++++++++n+++++++++++++++++++++++++++++++++++++++++++++++++++++++++++++++++++++n++++++++++++++++++++++++++++++++n++
(PID.TID 0000.0001) //     36 +nn++++nnn++nnn++n-nnnn+++++++++++++++++++++++++++++++++++++++++++++++++++++++++++++++++++++++++++++++++++++n++++++++++++++++++++nn++++nnn
(PID.TID 0000.0001) //     35 ++++++++nnnnnnnn+nnnnn++++++++++++++++++++++++++++++++++++++++++++++++++++++++++++++++++++++++++++++++++++nn+n++++++++++++++++++++++++++nn
(PID.TID 0000.0001) //     34 +++++++++nnnnnnnnnnn+++++++++++++++++++n++++++n+++++++++++++++++++++++++++++++++++++++++++++++++++++++++++n++nnn+++++++++++++++++++++++++n
(PID.TID 0000.0001) //     33 +++++++++nn+++nnnnn++++++++++++++++++++++++++nn++++++++++++++++++++++++++++++++++++++++++++++++++++++++++nn++++++++++++++++++++++++++++++n
(PID.TID 0000.0001) //     32 +++++++++nn++nnn+nn+++++++++++++++++++++++++++++++++++++++++++++++++++++++++++++++++++++++++++++++++++++nn+++++++++++++++++++++++++++++++n
(PID.TID 0000.0001) //     31 ++++++++++nnnnnnnnn++++++++++++++++++++++++++++++++++nnn++++++++++++++++++++++++++++++++++++++++++++++++nn++++++++++++++++++++++++++++++++
(PID.TID 0000.0001) //     30 ++++++++++nnnnnnnnn+++++++++++++++++++++++++++++++++++++n++++++++++++++++++++++++++++++++++++++++++++++++n++++++++++++n+++++++++++++++++++
(PID.TID 0000.0001) //     29 ++++++++++nnnnnnnnn++++++++++++++++++++++++++++++++++++++++++++++++++++++++++++++++++++++++++++++++++++++-n+++++++++nnn+++++++++++++++++++
(PID.TID 0000.0001) //     28 ++++++++++nnnnnnnnn++++++++++++++++++++++++++++++++++++++++++++++++++++++++++++++++++++++++++++++++++++++n-n++++++++nnn+++++++++++++++++++
(PID.TID 0000.0001) //     27 +++++++++nnnnnnnnnn+++n+++++++++++++++++++++++++++++++++++++++++++++++++++++++++++++++++++++++++++++++++++n--n+++n+nnnn++++++++++++++++++n
(PID.TID 0000.0001) //     26 +++++++++nnnnnnnn++++n++++++++++++++++++++++++++++++++++n+++++++++++++++++++++++++++++++++++++++++++++++++++--n+++nnnn+++++++++++++++++++n
(PID.TID 0000.0001) //     25 ++++++++++nnnnnnn++++n+++++++++++++++++++++++++++++nn+++++++++++++++++++++++++++++++++++++++++++++++++++++++--n++++nnn++++++++++++++++++++
(PID.TID 0000.0001) //     24 ++++++++++nnnnnn+++++n++++++++++++++++++++++++nnn+nnn+++++++++++++++++++++++++++++++++++++++++++++++++++++++--++++nn++++++++++++++++++++++
(PID.TID 0000.0001) //     23 ++++++++++nnnnnn+++++++++++++++++++++++++++++++nnnnn++++++++++++++++++++++++++++++++++++++++++++++++++++++++--++++nn++++++++++++++++++++++
(PID.TID 0000.0001) //     22 +++++++++++nnnnn+++++++++++++++++++++++++++++++nn+++++++++n+++++++++++++++++++++++++++++++++++++++++++++++++-n++++++++++++++++++++++++++++
(PID.TID 0000.0001) //     21 ++++++++++++nnn+++++++++++++++++++++++++++++++++++++++++++n++++++++++++++++++++++++++++++++++++++++++++++++nnn++++++++++++++++++++++++++++
(PID.TID 0000.0001) //     20 +++++++++++++++++++++++++++++++++++++++++++++++++++++++++n+++++++++++++++++++++++++++++++++++++++++++++++++nn+++++++++++++++++++++++++++++
(PID.TID 0000.0001) //     19 +++++++++++++++++++++++++++++++++++++++++++++++++++++++++++++++++++++++++++++++++++++++++++++++++++++++++++nn+++++++++++++++++++++++++++++
(PID.TID 0000.0001) //     18 +++++++++++++++++++++++++++++++++++++++++++++++++++++++++++++++++++++++++++++++++++++++++++++++++++++++++++nn+++++++++++++++++++++++++++++
(PID.TID 0000.0001) //     17 +++++++++++++++++++++++++++++++++++++++++++++++++++++++++++++++++++++++++++++++++++++++++++++++++++++++++++nn+++++++++++++++++++++++++++++
(PID.TID 0000.0001) //     16 +++++++++++++++++++++++++++++++++++++++++++++++++++++++++++++++++++++++++++++++++++++++++++++++++++++++++++nn+++++++++++++++++++++++++++++
(PID.TID 0000.0001) //     15 ++++++++++++++++++++++++++++++++++++++++++++++++++++++++++++++++++++++++++++++++++++++++++++++++++++++++++nn++++++++++++++++++++++++++++++
(PID.TID 0000.0001) //     14 ++++++++++++++++++++++++++++++++++++++++++++++++++++++++++++++++++++++++++++++++++++++++++++++++++++++++++++++++++++++++++++++++++++++++++
(PID.TID 0000.0001) //     13 ++++++++++++++++++++++++++++++++++++++++++++++++++++++++++++++++++++++++++++++++++++++++++++++++++++++++++++++++++++++++++++++++++++++++++
(PID.TID 0000.0001) //     12 ++++++++++++++++++++++++++++++++++++++++++++++++++++++++++++++++++++++++++++++++++++++++++++++++++++++++++++++++++++++++++++++++++++++++++
(PID.TID 0000.0001) //     11 ++++++++++++++++++++++++++++++++++++++++++++++++++++++++++++++++++++++++++++++++++++++++++++++++++++++++++++++++++++++++++++++++++++++++++
(PID.TID 0000.0001) //     10 ++++++++++++++++++++++++++++++++++++++++++++++++++++++++++++++++++++++++++++++++++++++++++++++++++++++++++++++++++++++++++++++++++++++++++
(PID.TID 0000.0001) //      9 +++++++++++++++++++++++++++++++++++++++++n++++++++++++++++++++++++++++++++++++++++++++++++++++++++++++++++++++++++++++++++++++++++++++++++
(PID.TID 0000.0001) //      8 ++++++++++++++++++++nnnn-nnnn++++nnnn-------nnnnnnnn---nnnnn+++++++++++++++++++++++++++++++++++++++++++++++++n++++++++++++++++++++++++++++
(PID.TID 0000.0001) //      7 ++nnnnnnnnnnnnnnnnn--------nnnnn--------------------------nnnnnnn+++++++++++++++++++++++++++++++++++++++++++nnn+++++++++++++++++++nnnnnnnn
(PID.TID 0000.0001) //      6 n-------------------------nnnn------------------------------nnnn++++++++++++++++++++++++++++++++++nnnnnnnnnnnnn++++++++++++++nnnn---------
(PID.TID 0000.0001) //      5 -------------------------------------------------------------nn++++++++++++++++++nnnnnnnnnnnnnnnnnnnnnnn++++++++++++++++++nnnn------------
(PID.TID 0000.0001) //      4 ----------------------------------------------------------nnnn++++++++++++++++++++nnnnnnnnnnnnnnn---nnnnn+++++++++++++++++nnnn------------
(PID.TID 0000.0001) //      3 ------------------------------------------------------------nnnnnn++++++++++++++++nnnnnnnnnnnnnn----nnnnnnnnn+++nnnnnnnnnnnnn-------------
(PID.TID 0000.0001) //      2 -----------------------------------------------------------------------nnnnnnnnnnnnnnnnnnnnnnnnnnnnnnnnnnnnnnnnnnnnnnnnn------------------
(PID.TID 0000.0001) //      1 ------------------------------------------------------------------------------------------------------------------------------------------
(PID.TID 0000.0001) //      0 ..........................................................................................................................................
(PID.TID 0000.0001) //     -1 ..........................................................................................................................................
(PID.TID 0000.0001) //     -2 ..........................................................................................................................................
(PID.TID 0000.0001) //     -3 ..........................................................................................................................................
(PID.TID 0000.0001) //     -4 ..........................................................................................................................................
(PID.TID 0000.0001) // =======================================================
(PID.TID 0000.0001) // END OF FIELD                                          =
(PID.TID 0000.0001) // =======================================================
(PID.TID 0000.0001) 
(PID.TID 0000.0001) // =======================================================
(PID.TID 0000.0001) // Field Model R_low (ini_masks_etc) at iteration          1
(PID.TID 0000.0001) // CMIN =          1.000000000000000E+32
(PID.TID 0000.0001) // CMAX =         -1.000000000000000E+32
(PID.TID 0000.0001) // CINT =          0.000000000000000E+00
(PID.TID 0000.0001) // SYMBOLS (CMIN->CMAX): -abcdefghijklmnopqrstuvwxyz+
(PID.TID 0000.0001) //                  0.0: .
(PID.TID 0000.0001) // RANGE I (Lo:Hi:Step):(  -4: 133:   1)
(PID.TID 0000.0001) // RANGE J (Lo:Hi:Step):(  69:  -4:  -1)
(PID.TID 0000.0001) // RANGE K (Lo:Hi:Step):(   1:   1:   1)
(PID.TID 0000.0001) // =======================================================
(PID.TID 0000.0001) K =   1
(PID.TID 0000.0001) //                I=5       I=15      I=25      I=35      I=45      I=55      I=65      I=75      I=85      I=95      I=105     I=115     I=125
(PID.TID 0000.0001) // |--J--|****01234|678901234|678901234|678901234|678901234|678901234|678901234|678901234|678901234|678901234|678901234|678901234|678901234|67890123
(PID.TID 0000.0001) //     69 ..........................................................................................................................................
(PID.TID 0000.0001) //     68 ..........................................................................................................................................
(PID.TID 0000.0001) //     67 ..........................................................................................................................................
(PID.TID 0000.0001) //     66 ..........................................................................................................................................
(PID.TID 0000.0001) //     65 ..........................................................................................................................................
(PID.TID 0000.0001) //     64 ..........................................................................................................................................
(PID.TID 0000.0001) //     63 ..........................................................................................................................................
(PID.TID 0000.0001) //     62 ..........................................................................................................................................
(PID.TID 0000.0001) //     61 ..........................................................................................................................................
(PID.TID 0000.0001) //     60 ..........................................................................................................................................
(PID.TID 0000.0001) //     59 ..........................................................................................................................................
(PID.TID 0000.0001) //     58 ..........................................................................................................................................
(PID.TID 0000.0001) //     57 ..........................................................................................................................................
(PID.TID 0000.0001) //     56 ..........................................................................................................................................
(PID.TID 0000.0001) //     55 ..........................................................................................................................................
(PID.TID 0000.0001) //     54 ..........................................................................................................................................
(PID.TID 0000.0001) //     53 ..........................................................................................................................................
(PID.TID 0000.0001) //     52 ..........................................................................................................................................
(PID.TID 0000.0001) //     51 ..........................................................................................................................................
(PID.TID 0000.0001) //     50 ..........................................................................................................................................
(PID.TID 0000.0001) //     49 ..........................................................................................................................................
(PID.TID 0000.0001) //     48 ..........................................................................................................................................
(PID.TID 0000.0001) //     47 ..........................................................................................................................................
(PID.TID 0000.0001) //     46 ..........................................................................................................................................
(PID.TID 0000.0001) //     45 ..........................................................................................................................................
(PID.TID 0000.0001) //     44 ..........................................................................................................................................
(PID.TID 0000.0001) //     43 ..........................................................................................................................................
(PID.TID 0000.0001) //     42 ..........................................................................................................................................
(PID.TID 0000.0001) //     41 ..........................................................................................................................................
(PID.TID 0000.0001) //     40 ..........................................................................................................................................
(PID.TID 0000.0001) //     39 ..........................................................................................................................................
(PID.TID 0000.0001) //     38 ..........................................................................................................................................
(PID.TID 0000.0001) //     37 ..........................................................................................................................................
(PID.TID 0000.0001) //     36 ..........................................................................................................................................
(PID.TID 0000.0001) //     35 ..........................................................................................................................................
(PID.TID 0000.0001) //     34 ..........................................................................................................................................
(PID.TID 0000.0001) //     33 ..........................................................................................................................................
(PID.TID 0000.0001) //     32 ..........................................................................................................................................
(PID.TID 0000.0001) //     31 ..........................................................................................................................................
(PID.TID 0000.0001) //     30 ..........................................................................................................................................
(PID.TID 0000.0001) //     29 ..........................................................................................................................................
(PID.TID 0000.0001) //     28 ..........................................................................................................................................
(PID.TID 0000.0001) //     27 ..........................................................................................................................................
(PID.TID 0000.0001) //     26 ..........................................................................................................................................
(PID.TID 0000.0001) //     25 ..........................................................................................................................................
(PID.TID 0000.0001) //     24 ..........................................................................................................................................
(PID.TID 0000.0001) //     23 ..........................................................................................................................................
(PID.TID 0000.0001) //     22 ..........................................................................................................................................
(PID.TID 0000.0001) //     21 ..........................................................................................................................................
(PID.TID 0000.0001) //     20 ..........................................................................................................................................
(PID.TID 0000.0001) //     19 ..........................................................................................................................................
(PID.TID 0000.0001) //     18 ..........................................................................................................................................
(PID.TID 0000.0001) //     17 ..........................................................................................................................................
(PID.TID 0000.0001) //     16 ..........................................................................................................................................
(PID.TID 0000.0001) //     15 ..........................................................................................................................................
(PID.TID 0000.0001) //     14 ..........................................................................................................................................
(PID.TID 0000.0001) //     13 ..........................................................................................................................................
(PID.TID 0000.0001) //     12 ..........................................................................................................................................
(PID.TID 0000.0001) //     11 ..........................................................................................................................................
(PID.TID 0000.0001) //     10 ..........................................................................................................................................
(PID.TID 0000.0001) //      9 ..........................................................................................................................................
(PID.TID 0000.0001) //      8 ..........................................................................................................................................
(PID.TID 0000.0001) //      7 ..........................................................................................................................................
(PID.TID 0000.0001) //      6 ..........................................................................................................................................
(PID.TID 0000.0001) //      5 ..........................................................................................................................................
(PID.TID 0000.0001) //      4 ..........................................................................................................................................
(PID.TID 0000.0001) //      3 ..........................................................................................................................................
(PID.TID 0000.0001) //      2 ..........................................................................................................................................
(PID.TID 0000.0001) //      1 ..........................................................................................................................................
(PID.TID 0000.0001) //      0 ..........................................................................................................................................
(PID.TID 0000.0001) //     -1 ..........................................................................................................................................
(PID.TID 0000.0001) //     -2 ..........................................................................................................................................
(PID.TID 0000.0001) //     -3 ..........................................................................................................................................
(PID.TID 0000.0001) //     -4 ..........................................................................................................................................
(PID.TID 0000.0001) // =======================================================
(PID.TID 0000.0001) // END OF FIELD                                          =
(PID.TID 0000.0001) // =======================================================
(PID.TID 0000.0001) 
(PID.TID 0000.0001) // =======================================================
(PID.TID 0000.0001) // Field Model Ro_surf (ini_masks_etc) at iteration          1
(PID.TID 0000.0001) // CMIN =          6.500000000000000E+04
(PID.TID 0000.0001) // CMAX =          1.000000000000000E+05
(PID.TID 0000.0001) // CINT =          1.296296296296296E+03
(PID.TID 0000.0001) // SYMBOLS (CMIN->CMAX): -abcdefghijklmnopqrstuvwxyz+
(PID.TID 0000.0001) //                  0.0: .
(PID.TID 0000.0001) // RANGE I (Lo:Hi:Step):(  -4: 133:   1)
(PID.TID 0000.0001) // RANGE J (Lo:Hi:Step):(  69:  -4:  -1)
(PID.TID 0000.0001) // RANGE K (Lo:Hi:Step):(   1:   1:   1)
(PID.TID 0000.0001) // =======================================================
(PID.TID 0000.0001) K =   1
(PID.TID 0000.0001) //                I=5       I=15      I=25      I=35      I=45      I=55      I=65      I=75      I=85      I=95      I=105     I=115     I=125
(PID.TID 0000.0001) // |--J--|****01234|678901234|678901234|678901234|678901234|678901234|678901234|678901234|678901234|678901234|678901234|678901234|678901234|67890123
(PID.TID 0000.0001) //     69 ..........................................................................................................................................
(PID.TID 0000.0001) //     68 ..........................................................................................................................................
(PID.TID 0000.0001) //     67 ..........................................................................................................................................
(PID.TID 0000.0001) //     66 ..........................................................................................................................................
(PID.TID 0000.0001) //     65 ..........................................................................................................................................
(PID.TID 0000.0001) //     64 ++++++++++++++++++++++++++++++++++++++++++++++++++++++++++++++++++++++++++++++++++++++++++++++++++++++++++++++++++++++++++++++++++++++++++
(PID.TID 0000.0001) //     63 ++++++++++++++++++++++++++++++++++++++++++++++++++++++++++++++++++++++++++++++++++++++++++++++++++++++++++++++++++++++++++++++++++++++++++
(PID.TID 0000.0001) //     62 +++++++++++++++++++++++++++++++++++++++++++++++++++++++++++++++++++++++++++++++++++++++++++++++++++++++++ss+++++++++++++s+++++++++++++++++
(PID.TID 0000.0001) //     61 +++++++++++++++++++++++++++++++++++++++++++++++++++++++++++++++++++++++++++++++++++++++++++++++++++++sssssss++ssssssssssssssss++++++++++++
(PID.TID 0000.0001) //     60 +++++++++++++++++++++++++++++++++++++++++++++++++++++++++++++++++++++++++++++++++++++++++++++++++++++++ss+++sssss---------sss+++++++++++++
(PID.TID 0000.0001) //     59 +++++++++++++++++++++++++++++++++++++++++++++++++++++++++++++++++++++++++++++++++++++++++++++++++++++++++++++++++ss--------sss++++++++++++
(PID.TID 0000.0001) //     58 ++++++++++++++++++++++++++++++++++++++++++++++++++++++++++++++++++++++++++++++++++++++++++++++++++++++++++++++++++ss------ss++++++++++++++
(PID.TID 0000.0001) //     57 +++++++++++ss++++++++++++++++++++++++ssss+++++++++ss+ss++++++++++++s++++++++ssssssss+++++++++++++++++++++++++++++++ss----ss+++++++++++++++
(PID.TID 0000.0001) //     56 ++++++++++ss++++++++++++++++++++++++++sssssss+++++ssssssss+++sssss++++++++++++ss++sssss++++++++++++++++++++++++++++s--ss++++++++++++++++++
(PID.TID 0000.0001) //     55 ++++++++sss+++++++++++++++++++++++++++ssss++++++++++ssssssssssss++s+++++++++++sssssssssss++++++++++++++++++++++++++s-s++++++++++++++++++ss
(PID.TID 0000.0001) //     54 +++++++ss+++++++++++++++++++++++++++++s++ssssss++s+++sssssss++++++++++++++++++s++sssssssss+++++s+++++++++++++++++++++++++++++++++++++++ss+
(PID.TID 0000.0001) //     53 ++++++++++++++++++++++++++++++++++++++++++sssssssssssss++++++++++++++++++++++++++++++ssssssss+ss++++++++++++++++++++++++++++++++++++++++++
(PID.TID 0000.0001) //     52 ++++++++++++++++++++++++++++++++++++sssssssssssssssss++++++++s+++++++++++++++++++++++++sssssssss+++++++++++ssss+++++++++++++++++++++++++++
(PID.TID 0000.0001) //     51 +++++++++++++++++++++++++++++++++++sssssssssssssss+sss++++++++++++++++++++++++++++++++++sssssssss++++++++++ssss+++++++++++++++++++++++++++
(PID.TID 0000.0001) //     50 +++++++++ssss++++++++++++++++sssssss-ss-sssssssss+++++s++++++++++++++++++++++++++++++++++sssssssss+++++++++++++++++++++++++++++++++++++++s
(PID.TID 0000.0001) //     49 ++++++sssss++ss+++++++++++++++sssssssss--ssssssss++++s+++++++++++++++++++++++++++++++++++sssssssss++++++++++++++++++++++++++++++++++++ssss
(PID.TID 0000.0001) //     48 +++++s+++++sss+++++sss+++++++ssss--sssssssssssss++ss+++++++++++++++++++++++++++++++++++++ssss-sssss++++++++++++++++++++++++++++++++++s++++
(PID.TID 0000.0001) //     47 ++ssss++++++s+++ssssss+++++++ss--sssssssssssssss+ss++++++++++++++++++++++++++++++++++++++sssss--sss+++++++++++++++++++++++++++++++ssss++++
(PID.TID 0000.0001) //     46 +++s+++++++++++sssssss+++s++ss---ss-------ssss++++++++++++++++++++++++++++++++++++++++++++ssss--ss++++++s++++++++++++++++++++++++++s++++++
(PID.TID 0000.0001) //     45 +++++sss++++++++++s++sssssss--------------sss+++++++++++++++++++++++++++++++++++++++++++++ssssssss+++++s+++++++++++++++++++++++++++++sss++
(PID.TID 0000.0001) //     44 ++sssss+++++++++++ss++s-ssssss+s----------sss++++++++++++++++++++++++++++++++++++++++++++++++sssss++++++++++++++++++++++++++++++++sssss+++
(PID.TID 0000.0001) //     43 ++ssss++ss+++++++ssss++sssssss+++s--------+ss++++++++++++++++++++++++++++++++++++++++++++++++ssss+++++++++++++++++++++++++++++++++ssss++ss
(PID.TID 0000.0001) //     42 +s++++sssss+++++++ssss+++ssss++++++sssss--sss+s+++++++++++++++++++++++++++++++++++++++++++++++sss++++++++++++++++++++++++++++++++s++++ssss
(PID.TID 0000.0001) //     41 ++++++sssssssss++++sss+++++++++ss+ss++sssss++++++++++++++++++++++++++++++++++++++++++++++++++++sss++++++++++++++++++++++++++++++++++++ssss
(PID.TID 0000.0001) //     40 ++++++sssssssss++s+sss++++++++++++++++ssss++++++++++++++++++++++++++++++++++++++++++++++++++++++ss++++++++++++++++++++++++++++++++++++ssss
(PID.TID 0000.0001) //     39 ++++++ssss++sss++s++ssss+++++++ss+++++++ss++++++++++++++++++++++++++++++++++++++++++++++++++++++sss+++++++++++++++++++++++++++++++++++ssss
(PID.TID 0000.0001) //     38 ++++++++s+++sssssss+sss+++++++++s+++++++++++++++++++++++++++++++++++++++++++++++++++++++++++++++++++ss++++++++++++++++++++++++++++++++++s+
(PID.TID 0000.0001) //     37 +++++++s++++ssssssss++++++++++++s+++++++++++++++++++++++++++++++++++++++++++++++++++++++++++++++++++++s++++++++++++++++++++++++++++++++s++
(PID.TID 0000.0001) //     36 +ss++++sss++sss++s-ssss+++++++++++++++++++++++++++++++++++++++++++++++++++++++++++++++++++++++++++++++++++++s++++++++++++++++++++ss++++sss
(PID.TID 0000.0001) //     35 ++++++++ssssssss+sssss++++++++++++++++++++++++++++++++++++++++++++++++++++++++++++++++++++++++++++++++++++ss+s++++++++++++++++++++++++++ss
(PID.TID 0000.0001) //     34 +++++++++sssssssssss+++++++++++++++++++s++++++s+++++++++++++++++++++++++++++++++++++++++++++++++++++++++++s++sss+++++++++++++++++++++++++s
(PID.TID 0000.0001) //     33 +++++++++ss+++sssss++++++++++++++++++++++++++ss++++++++++++++++++++++++++++++++++++++++++++++++++++++++++ss++++++++++++++++++++++++++++++s
(PID.TID 0000.0001) //     32 +++++++++ss++sss+ss+++++++++++++++++++++++++++++++++++++++++++++++++++++++++++++++++++++++++++++++++++++ss+++++++++++++++++++++++++++++++s
(PID.TID 0000.0001) //     31 ++++++++++sssssssss++++++++++++++++++++++++++++++++++sss++++++++++++++++++++++++++++++++++++++++++++++++ss++++++++++++++++++++++++++++++++
(PID.TID 0000.0001) //     30 ++++++++++sssssssss+++++++++++++++++++++++++++++++++++++s++++++++++++++++++++++++++++++++++++++++++++++++s++++++++++++s+++++++++++++++++++
(PID.TID 0000.0001) //     29 ++++++++++sssssssss++++++++++++++++++++++++++++++++++++++++++++++++++++++++++++++++++++++++++++++++++++++-s+++++++++sss+++++++++++++++++++
(PID.TID 0000.0001) //     28 ++++++++++sssssssss++++++++++++++++++++++++++++++++++++++++++++++++++++++++++++++++++++++++++++++++++++++s-s++++++++sss+++++++++++++++++++
(PID.TID 0000.0001) //     27 +++++++++ssssssssss+++s+++++++++++++++++++++++++++++++++++++++++++++++++++++++++++++++++++++++++++++++++++s--s+++s+ssss++++++++++++++++++s
(PID.TID 0000.0001) //     26 +++++++++ssssssss++++s++++++++++++++++++++++++++++++++++s+++++++++++++++++++++++++++++++++++++++++++++++++++--s+++ssss+++++++++++++++++++s
(PID.TID 0000.0001) //     25 ++++++++++sssssss++++s+++++++++++++++++++++++++++++ss+++++++++++++++++++++++++++++++++++++++++++++++++++++++--s++++sss++++++++++++++++++++
(PID.TID 0000.0001) //     24 ++++++++++ssssss+++++s++++++++++++++++++++++++sss+sss+++++++++++++++++++++++++++++++++++++++++++++++++++++++--++++ss++++++++++++++++++++++
(PID.TID 0000.0001) //     23 ++++++++++ssssss+++++++++++++++++++++++++++++++sssss++++++++++++++++++++++++++++++++++++++++++++++++++++++++--++++ss++++++++++++++++++++++
(PID.TID 0000.0001) //     22 +++++++++++sssss+++++++++++++++++++++++++++++++ss+++++++++s+++++++++++++++++++++++++++++++++++++++++++++++++-s++++++++++++++++++++++++++++
(PID.TID 0000.0001) //     21 ++++++++++++sss+++++++++++++++++++++++++++++++++++++++++++s++++++++++++++++++++++++++++++++++++++++++++++++sss++++++++++++++++++++++++++++
(PID.TID 0000.0001) //     20 +++++++++++++++++++++++++++++++++++++++++++++++++++++++++s+++++++++++++++++++++++++++++++++++++++++++++++++ss+++++++++++++++++++++++++++++
(PID.TID 0000.0001) //     19 +++++++++++++++++++++++++++++++++++++++++++++++++++++++++++++++++++++++++++++++++++++++++++++++++++++++++++ss+++++++++++++++++++++++++++++
(PID.TID 0000.0001) //     18 +++++++++++++++++++++++++++++++++++++++++++++++++++++++++++++++++++++++++++++++++++++++++++++++++++++++++++ss+++++++++++++++++++++++++++++
(PID.TID 0000.0001) //     17 +++++++++++++++++++++++++++++++++++++++++++++++++++++++++++++++++++++++++++++++++++++++++++++++++++++++++++ss+++++++++++++++++++++++++++++
(PID.TID 0000.0001) //     16 +++++++++++++++++++++++++++++++++++++++++++++++++++++++++++++++++++++++++++++++++++++++++++++++++++++++++++ss+++++++++++++++++++++++++++++
(PID.TID 0000.0001) //     15 ++++++++++++++++++++++++++++++++++++++++++++++++++++++++++++++++++++++++++++++++++++++++++++++++++++++++++ss++++++++++++++++++++++++++++++
(PID.TID 0000.0001) //     14 ++++++++++++++++++++++++++++++++++++++++++++++++++++++++++++++++++++++++++++++++++++++++++++++++++++++++++++++++++++++++++++++++++++++++++
(PID.TID 0000.0001) //     13 ++++++++++++++++++++++++++++++++++++++++++++++++++++++++++++++++++++++++++++++++++++++++++++++++++++++++++++++++++++++++++++++++++++++++++
(PID.TID 0000.0001) //     12 ++++++++++++++++++++++++++++++++++++++++++++++++++++++++++++++++++++++++++++++++++++++++++++++++++++++++++++++++++++++++++++++++++++++++++
(PID.TID 0000.0001) //     11 ++++++++++++++++++++++++++++++++++++++++++++++++++++++++++++++++++++++++++++++++++++++++++++++++++++++++++++++++++++++++++++++++++++++++++
(PID.TID 0000.0001) //     10 ++++++++++++++++++++++++++++++++++++++++++++++++++++++++++++++++++++++++++++++++++++++++++++++++++++++++++++++++++++++++++++++++++++++++++
(PID.TID 0000.0001) //      9 +++++++++++++++++++++++++++++++++++++++++s++++++++++++++++++++++++++++++++++++++++++++++++++++++++++++++++++++++++++++++++++++++++++++++++
(PID.TID 0000.0001) //      8 ++++++++++++++++++++ssss-ssss++++ssss-------ssssssss---sssss+++++++++++++++++++++++++++++++++++++++++++++++++s++++++++++++++++++++++++++++
(PID.TID 0000.0001) //      7 ++sssssssssssssssss--------sssss--------------------------sssssss+++++++++++++++++++++++++++++++++++++++++++sss+++++++++++++++++++ssssssss
(PID.TID 0000.0001) //      6 s-------------------------ssss------------------------------ssss++++++++++++++++++++++++++++++++++sssssssssssss++++++++++++++ssss---------
(PID.TID 0000.0001) //      5 -------------------------------------------------------------ss++++++++++++++++++sssssssssssssssssssssss++++++++++++++++++ssss------------
(PID.TID 0000.0001) //      4 ----------------------------------------------------------ssss++++++++++++++++++++sssssssssssssss---sssss+++++++++++++++++ssss------------
(PID.TID 0000.0001) //      3 ------------------------------------------------------------ssssss++++++++++++++++ssssssssssssss----sssssssss+++sssssssssssss-------------
(PID.TID 0000.0001) //      2 -----------------------------------------------------------------------sssssssssssssssssssssssssssssssssssssssssssssssss------------------
(PID.TID 0000.0001) //      1 ------------------------------------------------------------------------------------------------------------------------------------------
(PID.TID 0000.0001) //      0 ..........................................................................................................................................
(PID.TID 0000.0001) //     -1 ..........................................................................................................................................
(PID.TID 0000.0001) //     -2 ..........................................................................................................................................
(PID.TID 0000.0001) //     -3 ..........................................................................................................................................
(PID.TID 0000.0001) //     -4 ..........................................................................................................................................
(PID.TID 0000.0001) // =======================================================
(PID.TID 0000.0001) // END OF FIELD                                          =
(PID.TID 0000.0001) // =======================================================
(PID.TID 0000.0001) 
(PID.TID 0000.0001) // =======================================================
(PID.TID 0000.0001) // Field hFacC at iteration          1
(PID.TID 0000.0001) // CMIN =          1.000000000000000E+00
(PID.TID 0000.0001) // CMAX =          1.000000000000000E+00
(PID.TID 0000.0001) // CINT =          0.000000000000000E+00
(PID.TID 0000.0001) // SYMBOLS (CMIN->CMAX): -abcdefghijklmnopqrstuvwxyz+
(PID.TID 0000.0001) //                  0.0: .
(PID.TID 0000.0001) // RANGE I (Lo:Hi:Step):(  -4: 133:   1)
(PID.TID 0000.0001) // RANGE J (Lo:Hi:Step):(  69:  -4:  -1)
(PID.TID 0000.0001) // RANGE K (Lo:Hi:Step):(   1:   1:   1)
(PID.TID 0000.0001) // =======================================================
(PID.TID 0000.0001) K =   1
(PID.TID 0000.0001) //                I=5       I=15      I=25      I=35      I=45      I=55      I=65      I=75      I=85      I=95      I=105     I=115     I=125
(PID.TID 0000.0001) // |--J--|****01234|678901234|678901234|678901234|678901234|678901234|678901234|678901234|678901234|678901234|678901234|678901234|678901234|67890123
(PID.TID 0000.0001) //     69 ..........................................................................................................................................
(PID.TID 0000.0001) //     68 ..........................................................................................................................................
(PID.TID 0000.0001) //     67 ..........................................................................................................................................
(PID.TID 0000.0001) //     66 ..........................................................................................................................................
(PID.TID 0000.0001) //     65 ..........................................................................................................................................
(PID.TID 0000.0001) //     64 ------------------------------------------------------------------------------------------------------------------------------------------
(PID.TID 0000.0001) //     63 ------------------------------------------------------------------------------------------------------------------------------------------
(PID.TID 0000.0001) //     62 ---------------------------------------------------------------------------------------------------------..-------------.-----------------
(PID.TID 0000.0001) //     61 -----------------------------------------------------------------------------------------------------.......--................------------
(PID.TID 0000.0001) //     60 -------------------------------------------------------------------------------------------------------..---.................-------------
(PID.TID 0000.0001) //     59 -----------------------------------------------------------------------------------------------------------------.............------------
(PID.TID 0000.0001) //     58 ------------------------------------------------------------------------------------------------------------------..........--------------
(PID.TID 0000.0001) //     57 -----------..------------------------....---------..-..------------.--------........-------------------------------........---------------
(PID.TID 0000.0001) //     56 ----------..--------------------------.......-----........---.....------------..--.....----------------------------.....------------------
(PID.TID 0000.0001) //     55 --------...---------------------------....----------............--.-----------...........--------------------------...------------------..
(PID.TID 0000.0001) //     54 -------..-----------------------------.--......--.---.......------------------.--.........-----.---------------------------------------..-
(PID.TID 0000.0001) //     53 ------------------------------------------.............------------------------------........-..------------------------------------------
(PID.TID 0000.0001) //     52 ------------------------------------.................--------.-------------------------.........-----------....---------------------------
(PID.TID 0000.0001) //     51 -----------------------------------...............-...----------------------------------.........----------....---------------------------
(PID.TID 0000.0001) //     50 ---------....----------------....................-----.----------------------------------.........---------------------------------------.
(PID.TID 0000.0001) //     49 ------.....--..---------------...................----.-----------------------------------.........------------------------------------....
(PID.TID 0000.0001) //     48 -----.-----...-----...-------...................--..-------------------------------------..........----------------------------------.----
(PID.TID 0000.0001) //     47 --....------.---......-------...................-..--------------------------------------..........-------------------------------....----
(PID.TID 0000.0001) //     46 ---.-----------.......---.--..................--------------------------------------------........------.--------------------------.------
(PID.TID 0000.0001) //     45 -----...----------.--........................---------------------------------------------........-----.-----------------------------...--
(PID.TID 0000.0001) //     44 --.....-----------..--........-..............------------------------------------------------.....--------------------------------.....---
(PID.TID 0000.0001) //     43 --....--..-------....--.......---.........-..------------------------------------------------....---------------------------------....--..
(PID.TID 0000.0001) //     42 -.----.....-------....---....------..........-.-----------------------------------------------...--------------------------------.----....
(PID.TID 0000.0001) //     41 ------.........----...---------..-..--.....----------------------------------------------------...------------------------------------....
(PID.TID 0000.0001) //     40 ------.........--.-...----------------....------------------------------------------------------..------------------------------------....
(PID.TID 0000.0001) //     39 ------....--...--.--....-------..-------..------------------------------------------------------...-----------------------------------....
(PID.TID 0000.0001) //     38 --------.---.......-...---------.-------------------------------------------------------------------..----------------------------------.-
(PID.TID 0000.0001) //     37 -------.----........------------.---------------------------------------------------------------------.--------------------------------.--
(PID.TID 0000.0001) //     36 -..----...--...--......-------------------------------------------------------------------------------------.--------------------..----...
(PID.TID 0000.0001) //     35 --------........-.....------------------------------------------------------------------------------------..-.--------------------------..
(PID.TID 0000.0001) //     34 ---------...........-------------------.------.-----------------------------------------------------------.--...-------------------------.
(PID.TID 0000.0001) //     33 ---------..---.....--------------------------..----------------------------------------------------------..------------------------------.
(PID.TID 0000.0001) //     32 ---------..--...-..-------------------------------------------------------------------------------------..-------------------------------.
(PID.TID 0000.0001) //     31 ----------.........----------------------------------...------------------------------------------------..--------------------------------
(PID.TID 0000.0001) //     30 ----------.........-------------------------------------.------------------------------------------------.------------.-------------------
(PID.TID 0000.0001) //     29 ----------.........--------------------------------------------------------------------------------------..---------...-------------------
(PID.TID 0000.0001) //     28 ----------.........--------------------------------------------------------------------------------------...--------...-------------------
(PID.TID 0000.0001) //     27 ---------..........---.-----------------------------------------------------------------------------------....---.-....------------------.
(PID.TID 0000.0001) //     26 ---------........----.----------------------------------.---------------------------------------------------...---....-------------------.
(PID.TID 0000.0001) //     25 ----------.......----.-----------------------------..-------------------------------------------------------...----...--------------------
(PID.TID 0000.0001) //     24 ----------......-----.------------------------...-...-------------------------------------------------------..----..----------------------
(PID.TID 0000.0001) //     23 ----------......-------------------------------.....--------------------------------------------------------..----..----------------------
(PID.TID 0000.0001) //     22 -----------.....-------------------------------..---------.-------------------------------------------------..----------------------------
(PID.TID 0000.0001) //     21 ------------...-------------------------------------------.------------------------------------------------...----------------------------
(PID.TID 0000.0001) //     20 ---------------------------------------------------------.-------------------------------------------------..-----------------------------
(PID.TID 0000.0001) //     19 -----------------------------------------------------------------------------------------------------------..-----------------------------
(PID.TID 0000.0001) //     18 -----------------------------------------------------------------------------------------------------------..-----------------------------
(PID.TID 0000.0001) //     17 -----------------------------------------------------------------------------------------------------------..-----------------------------
(PID.TID 0000.0001) //     16 -----------------------------------------------------------------------------------------------------------..-----------------------------
(PID.TID 0000.0001) //     15 ----------------------------------------------------------------------------------------------------------..------------------------------
(PID.TID 0000.0001) //     14 ------------------------------------------------------------------------------------------------------------------------------------------
(PID.TID 0000.0001) //     13 ------------------------------------------------------------------------------------------------------------------------------------------
(PID.TID 0000.0001) //     12 ------------------------------------------------------------------------------------------------------------------------------------------
(PID.TID 0000.0001) //     11 ------------------------------------------------------------------------------------------------------------------------------------------
(PID.TID 0000.0001) //     10 ------------------------------------------------------------------------------------------------------------------------------------------
(PID.TID 0000.0001) //      9 -----------------------------------------.------------------------------------------------------------------------------------------------
(PID.TID 0000.0001) //      8 --------------------.........----...........................-------------------------------------------------.----------------------------
(PID.TID 0000.0001) //      7 --...............................................................-------------------------------------------...-------------------........
(PID.TID 0000.0001) //      6 ................................................................----------------------------------.............--------------.............
(PID.TID 0000.0001) //      5 ...............................................................------------------.......................------------------................
(PID.TID 0000.0001) //      4 ..............................................................--------------------.......................-----------------................
(PID.TID 0000.0001) //      3 ..................................................................----------------...........................---..........................
(PID.TID 0000.0001) //      2 ..........................................................................................................................................
(PID.TID 0000.0001) //      1 ..........................................................................................................................................
(PID.TID 0000.0001) //      0 ..........................................................................................................................................
(PID.TID 0000.0001) //     -1 ..........................................................................................................................................
(PID.TID 0000.0001) //     -2 ..........................................................................................................................................
(PID.TID 0000.0001) //     -3 ..........................................................................................................................................
(PID.TID 0000.0001) //     -4 ..........................................................................................................................................
(PID.TID 0000.0001) // =======================================================
(PID.TID 0000.0001) // END OF FIELD                                          =
(PID.TID 0000.0001) // =======================================================
(PID.TID 0000.0001) 
(PID.TID 0000.0001) // =======================================================
(PID.TID 0000.0001) // Field hFacW at iteration          1
(PID.TID 0000.0001) // CMIN =          1.000000000000000E+00
(PID.TID 0000.0001) // CMAX =          1.000000000000000E+00
(PID.TID 0000.0001) // CINT =          0.000000000000000E+00
(PID.TID 0000.0001) // SYMBOLS (CMIN->CMAX): -abcdefghijklmnopqrstuvwxyz+
(PID.TID 0000.0001) //                  0.0: .
(PID.TID 0000.0001) // RANGE I (Lo:Hi:Step):(  -4: 133:   1)
(PID.TID 0000.0001) // RANGE J (Lo:Hi:Step):(  69:  -4:  -1)
(PID.TID 0000.0001) // RANGE K (Lo:Hi:Step):(   1:   1:   1)
(PID.TID 0000.0001) // =======================================================
(PID.TID 0000.0001) K =   1
(PID.TID 0000.0001) //                I=5       I=15      I=25      I=35      I=45      I=55      I=65      I=75      I=85      I=95      I=105     I=115     I=125
(PID.TID 0000.0001) // |--J--|****01234|678901234|678901234|678901234|678901234|678901234|678901234|678901234|678901234|678901234|678901234|678901234|678901234|67890123
(PID.TID 0000.0001) //     69 ..........................................................................................................................................
(PID.TID 0000.0001) //     68 ..........................................................................................................................................
(PID.TID 0000.0001) //     67 ..........................................................................................................................................
(PID.TID 0000.0001) //     66 ..........................................................................................................................................
(PID.TID 0000.0001) //     65 ..........................................................................................................................................
(PID.TID 0000.0001) //     64 ------------------------------------------------------------------------------------------------------------------------------------------
(PID.TID 0000.0001) //     63 ------------------------------------------------------------------------------------------------------------------------------------------
(PID.TID 0000.0001) //     62 ---------------------------------------------------------------------------------------------------------...------------..----------------
(PID.TID 0000.0001) //     61 -----------------------------------------------------------------------------------------------------........-.................-----------
(PID.TID 0000.0001) //     60 -------------------------------------------------------------------------------------------------------...--..................------------
(PID.TID 0000.0001) //     59 -----------------------------------------------------------------------------------------------------------------..............-----------
(PID.TID 0000.0001) //     58 ------------------------------------------------------------------------------------------------------------------...........-------------
(PID.TID 0000.0001) //     57 -----------...-----------------------.....--------......-----------..-------.........------------------------------.........--------------
[...]
(PID.TID 0000.0001)     50 ................................................................................................................................
(PID.TID 0000.0001)     49 ................................................................................................................................
(PID.TID 0000.0001)     48 ................................................................................................................................
(PID.TID 0000.0001)     47 ................................................................................................................................
(PID.TID 0000.0001)     46 ................................................................................................................................
(PID.TID 0000.0001)     45 ................................................................................................................................
(PID.TID 0000.0001)     44 ................................................................................................................................
(PID.TID 0000.0001)     43 ................................................................................................................................
(PID.TID 0000.0001)     42 ................................................................................................................................
(PID.TID 0000.0001)     41 ................................................................................................................................
(PID.TID 0000.0001)     40 ................................................................................................................................
(PID.TID 0000.0001)     39 ................................................................................................................................
(PID.TID 0000.0001)     38 ................................................................................................................................
(PID.TID 0000.0001)     37 ................................................................................................................................
(PID.TID 0000.0001)     36 ................................................................................................................................
(PID.TID 0000.0001)     35 ................................................................................................................................
(PID.TID 0000.0001)     34 ................................................................................................................................
(PID.TID 0000.0001)     33 ................................................................................................................................
(PID.TID 0000.0001)     32 ................................................................................................................................
(PID.TID 0000.0001)     31 ................................................................................................................................
(PID.TID 0000.0001)     30 ................................................................................................................................
(PID.TID 0000.0001)     29 ................................................................................................................................
(PID.TID 0000.0001)     28 ................................................................................................................................
(PID.TID 0000.0001)     27 ................................................................................................................................
(PID.TID 0000.0001)     26 ................................................................................................................................
(PID.TID 0000.0001)     25 ................................................................................................................................
(PID.TID 0000.0001)     24 ................................................................................................................................
(PID.TID 0000.0001)     23 ................................................................................................................................
(PID.TID 0000.0001)     22 ................................................................................................................................
(PID.TID 0000.0001)     21 ................................................................................................................................
(PID.TID 0000.0001)     20 ................................................................................................................................
(PID.TID 0000.0001)     19 ................................................................................................................................
(PID.TID 0000.0001)     18 ................................................................................................................................
(PID.TID 0000.0001)     17 ................................................................................................................................
(PID.TID 0000.0001)     16 ................................................................................................................................
(PID.TID 0000.0001)     15 ................................................................................................................................
(PID.TID 0000.0001)     14 ................................................................................................................................
(PID.TID 0000.0001)     13 ................................................................................................................................
(PID.TID 0000.0001)     12 ................................................................................................................................
(PID.TID 0000.0001)     11 ................................................................................................................................
(PID.TID 0000.0001)     10 ................................................................................................................................
(PID.TID 0000.0001)      9 ................................................................................................................................
(PID.TID 0000.0001)      8 ................................................................................................................................
(PID.TID 0000.0001)      7 ................................................................................................................................
(PID.TID 0000.0001)      6 ................................................................................................................................
(PID.TID 0000.0001)      5 ................................................................................................................................
(PID.TID 0000.0001)      4 ................................................................................................................................
(PID.TID 0000.0001)      3 ................................................................................................................................
(PID.TID 0000.0001)      2 ................................................................................................................................
(PID.TID 0000.0001)      1 ................................................................................................................................
(PID.TID 0000.0001) // ==================  Read file smoist.jan.sun.b           1           1
 cg2d: Sum(rhs),rhsMax =   5.81132364452230E-16  1.19335856416735E-01
 CG2D iters, err =      0          7.54003373044747E-01
 CG2D iters, err =     92          2.98116018120605E-12
 cg2d: Sum(rhs),rhsMax =  -7.15295541981603E-12  3.21924919485246E-01
 CG2D iters, err =      0          1.41207193540262E+00
 CG2D iters, err =     93          3.36190950064083E-12
 cg2d: Sum(rhs),rhsMax =  -3.03830814132010E-11  6.40622613334960E-01
 CG2D iters, err =      0          2.00370653484014E+00
 CG2D iters, err =     93          3.48514040037596E-12
 cg2d: Sum(rhs),rhsMax =  -2.57318817946037E-11  1.05435654641229E+00
 CG2D iters, err =      0          2.50400143670195E+00
 CG2D iters, err =     94          3.28318495194994E-12
 cg2d: Sum(rhs),rhsMax =  -2.92118276182945E-11  1.54782383560347E+00
 CG2D iters, err =      0          2.90547859532235E+00
 CG2D iters, err =     94          3.39570915300681E-12
 cg2d: Sum(rhs),rhsMax =  -3.52807212698064E-11  2.10280476537264E+00
 CG2D iters, err =      0          3.21321007348724E+00
 CG2D iters, err =     94          3.60092997681704E-12
 cg2d: Sum(rhs),rhsMax =  -4.65428563745096E-11  2.72631752534484E+00
 CG2D iters, err =      0          3.44007341369915E+00
 CG2D iters, err =     95          2.74705381950870E-12
 cg2d: Sum(rhs),rhsMax =  -3.75570251981427E-11  3.41448613146163E+00
 CG2D iters, err =      0          3.60294424724860E+00
 CG2D iters, err =     95          2.79716908975965E-12
 cg2d: Sum(rhs),rhsMax =  -2.70255883644266E-11  4.12319235911131E+00
 CG2D iters, err =      0          3.71970124144630E+00
 CG2D iters, err =     95          2.58508775137227E-12
 cg2d: Sum(rhs),rhsMax =  -1.59572823704712E-11  4.83535956370235E+00
 CG2D iters, err =      0          3.80706844399025E+00
 CG2D iters, err =     95          2.44101120334026E-12
 cg2d: Sum(rhs),rhsMax =  -5.11029933647489E-12  5.53735302149429E+00
 CG2D iters, err =      0          3.87919249412811E+00
 CG2D iters, err =     95          2.70519409247436E-12
 cg2d: Sum(rhs),rhsMax =   6.46797372605423E-12  6.21930762562433E+00
 CG2D iters, err =      0          3.94688709991053E+00
 CG2D iters, err =     95          3.04356934537802E-12
 cg2d: Sum(rhs),rhsMax =   1.91841108970747E-11  6.87501525836667E+00
 CG2D iters, err =      0          4.01753110040575E+00
 CG2D iters, err =     95          3.31724572730986E-12
 cg2d: Sum(rhs),rhsMax =   3.23354103909379E-11  7.50149378509170E+00
 CG2D iters, err =      0          4.09553671499638E+00
 CG2D iters, err =     95          3.55673502184286E-12
 cg2d: Sum(rhs),rhsMax =   4.47767795064280E-11  8.09836354545062E+00
 CG2D iters, err =      0          4.18314299407876E+00
 CG2D iters, err =     95          3.74246256136821E-12
 cg2d: Sum(rhs),rhsMax =   5.89876689160995E-11  8.66714598751835E+00
 CG2D iters, err =      0          4.28120811105328E+00
 CG2D iters, err =     95          3.82065062550255E-12
 cg2d: Sum(rhs),rhsMax =   7.08205195876221E-11  9.21057789913128E+00
 CG2D iters, err =      0          4.38976486643519E+00
 CG2D iters, err =     95          3.77161806489983E-12
 cg2d: Sum(rhs),rhsMax =   8.00979074733199E-11  9.73200847194770E+00
 CG2D iters, err =      0          4.50829507230953E+00
 CG2D iters, err =     95          3.62997435341425E-12
 cg2d: Sum(rhs),rhsMax =   9.05588520838663E-11  1.02349194265583E+01
 CG2D iters, err =      0          4.63583133960284E+00
 CG2D iters, err =     95          3.43962409059494E-12
 cg2d: Sum(rhs),rhsMax =   9.82686536310506E-11  1.07225839231989E+01
 CG2D iters, err =      0          4.77103107866227E+00
 CG2D iters, err =     95          3.23353076018991E-12
 cg2d: Sum(rhs),rhsMax =   1.06664309329485E-10  1.11978601478166E+01
 CG2D iters, err =      0          4.91230682523158E+00
 CG2D iters, err =     95          2.91801225033837E-12
 cg2d: Sum(rhs),rhsMax =   1.13811113311435E-10  1.16631013666198E+01
 CG2D iters, err =      0          5.05801081601794E+00
 CG2D iters, err =     94          3.24910684785352E-12
 cg2d: Sum(rhs),rhsMax =   1.04410646795117E-10  1.21201560028496E+01
 CG2D iters, err =      0          5.20661990357712E+00
 CG2D iters, err =     94          3.97751178805917E-12
 cg2d: Sum(rhs),rhsMax =   1.00767325039719E-10  1.25704283237743E+01
 CG2D iters, err =      0          5.35686563067155E+00
 CG2D iters, err =     95          2.54939110364253E-12
=====================================
(PID.TID 0000.0001) // END OF FIELD                                          =
(PID.TID 0000.0001) // =======================================================
(PID.TID 0000.0001) 
(PID.TID 0000.0001) // =======================================================
(PID.TID 0000.0001) // Model current state
(PID.TID 0000.0001) // =======================================================
(PID.TID 0000.0001) 
(PID.TID 0000.0001)  Seconds in section "ALL                [THE_MODEL_MAIN]":
(PID.TID 0000.0001)          User time:   75.03999542258680
(PID.TID 0000.0001)        System time:  0.5199999716132879
(PID.TID 0000.0001)    Wall clock time:   79.63456404209137
(PID.TID 0000.0001)         No. starts:           1
(PID.TID 0000.0001)          No. stops:           1
(PID.TID 0000.0001)  Seconds in section "INITIALISE_FIXED   [THE_MODEL_MAIN]":
(PID.TID 0000.0001)          User time:  0.3600000049918890
(PID.TID 0000.0001)        System time:  6.9999998435378075E-002
(PID.TID 0000.0001)    Wall clock time:  0.6811209917068481
(PID.TID 0000.0001)         No. starts:           1
(PID.TID 0000.0001)          No. stops:           1
(PID.TID 0000.0001)  Seconds in section "THE_MAIN_LOOP      [THE_MODEL_MAIN]":
(PID.TID 0000.0001)          User time:   74.67999541759491
(PID.TID 0000.0001)        System time:  0.4499999731779099
(PID.TID 0000.0001)    Wall clock time:   78.95263910293579
(PID.TID 0000.0001)         No. starts:           1
(PID.TID 0000.0001)          No. stops:           1
(PID.TID 0000.0001)  Seconds in section "SPIN-UP            [THE_MAIN_LOOP]":
(PID.TID 0000.0001)          User time:  0.2199999690055847
(PID.TID 0000.0001)        System time:  6.0000002384185791E-002
(PID.TID 0000.0001)    Wall clock time:  0.4870640039443970
(PID.TID 0000.0001)         No. starts:           1
(PID.TID 0000.0001)          No. stops:           1
(PID.TID 0000.0001)  Seconds in section "INITIALISE_VARIA   [THE_MAIN_LOOP]":
(PID.TID 0000.0001)          User time:  0.1599999666213989
(PID.TID 0000.0001)        System time:  3.9999999105930328E-002
(PID.TID 0000.0001)    Wall clock time:  0.2668840885162354
(PID.TID 0000.0001)         No. starts:           1
(PID.TID 0000.0001)          No. stops:           1
(PID.TID 0000.0001)  Seconds in section "I/O (WRITE)        [THE_MAIN_LOOP]":
(PID.TID 0000.0001)          User time:  0.1899994015693665
(PID.TID 0000.0001)        System time:  8.9999996125698090E-002
(PID.TID 0000.0001)    Wall clock time:   1.629474997520447
(PID.TID 0000.0001)         No. starts:           3
(PID.TID 0000.0001)          No. stops:           3
(PID.TID 0000.0001)  Seconds in section "MAIN LOOP          [THE_MAIN_LOOP]":
(PID.TID 0000.0001)          User time:   74.31999605894089
(PID.TID 0000.0001)        System time:  0.3199999779462814
(PID.TID 0000.0001)    Wall clock time:   77.05393803119659
(PID.TID 0000.0001)         No. starts:           1
(PID.TID 0000.0001)          No. stops:           1
(PID.TID 0000.0001)  Seconds in section "FORWARD_STEP       [THE_MAIN_LOOP]":
(PID.TID 0000.0001)          User time:   74.31999605894089
(PID.TID 0000.0001)        System time:  0.3199999779462814
(PID.TID 0000.0001)    Wall clock time:   77.04790127277374
(PID.TID 0000.0001)         No. starts:          24
(PID.TID 0000.0001)          No. stops:          24
(PID.TID 0000.0001)  Seconds in section "I/O (READ)         [FORWARD_STEP]":
(PID.TID 0000.0001)          User time:  0.0000000000000000E+000
(PID.TID 0000.0001)        System time:  0.0000000000000000E+000
(PID.TID 0000.0001)    Wall clock time:  5.8339834213256836E-003
(PID.TID 0000.0001)         No. starts:          24
(PID.TID 0000.0001)          No. stops:          24
(PID.TID 0000.0001)  Seconds in section "DYNAMICS           [FORWARD_STEP]":
(PID.TID 0000.0001)          User time:   39.97998827695847
(PID.TID 0000.0001)        System time:  0.2499999850988388
(PID.TID 0000.0001)    Wall clock time:   41.62786900997162
(PID.TID 0000.0001)         No. starts:          24
(PID.TID 0000.0001)          No. stops:          24
(NORMAL END
PID.TID 0000.0001)  Seconds in section "AIM_DO_ATMOS_PHYS      [DYNAMICS]":
(PID.TID 0000.0001)          User time:   15.21000087261200
(PID.TID 0000.0001)        System time:  0.1499999761581421
(PID.TID 0000.0001)    Wall clock time:   15.98142683506012
(PID.TID 0000.0001)         No. starts:          24
(PID.TID 0000.0001)          No. stops:          24
(PID.TID 0000.0001)  Seconds in section "SHAP_FILT          [FORWARD_STEP]":
(PID.TID 0000.0001)          User time:   9.910010099411011
(PID.TID 0000.0001)        System time:  4.0000021457672119E-002
(PID.TID 0000.0001)    Wall clock time:   10.30018794536591
(PID.TID 0000.0001)         No. starts:          24
(PID.TID 0000.0001)          No. stops:          24
(PID.TID 0000.0001)  Seconds in section "SOLVE_FOR_PRESSURE [FORWARD_STEP]":
(PID.TID 0000.0001)          User time:   19.78999900817871
(PID.TID 0000.0001)        System time:  1.9999980926513672E-002
(PID.TID 0000.0001)    Wall clock time:   20.27902591228485
(PID.TID 0000.0001)         No. starts:          24
(PID.TID 0000.0001)          No. stops:          24
(PID.TID 0000.0001)  Seconds in section "BLOCKING_EXCHANGES [FORWARD_STEP]":
(PID.TID 0000.0001)          User time:  0.1900041103363037
(PID.TID 0000.0001)        System time:  0.0000000000000000E+000
(PID.TID 0000.0001)    Wall clock time:  0.1790146827697754
(PID.TID 0000.0001)         No. starts:          24
(PID.TID 0000.0001)          No. stops:          24
(PID.TID 0000.0001)  Seconds in section "I/O (WRITE)        [FORWARD_STEP]":
(PID.TID 0000.0001)          User time:  2.0002365112304688E-002
(PID.TID 0000.0001)        System time:  0.0000000000000000E+000
(PID.TID 0000.0001)    Wall clock time:  1.2243628501892090E-002
(PID.TID 0000.0001)         No. starts:          48
(PID.TID 0000.0001)          No. stops:          48
(PID.TID 0000.0001)  Seconds in section "SPIN-DOWN          [THE_MAIN_LOOP]":
(PID.TID 0000.0001)          User time:  0.0000000000000000E+000
(PID.TID 0000.0001)        System time:  0.0000000000000000E+000
(PID.TID 0000.0001)    Wall clock time:  0.0000000000000000E+000
(PID.TID 0000.0001)         No. starts:           1
(PID.TID 0000.0001)          No. stops:           0
(PID.TID 0000.0001) // ======================================================
(PID.TID 0000.0001) // Tile <-> Tile communication statistics
(PID.TID 0000.0001) // ======================================================
(PID.TID 0000.0001) // o Tile number: 000001
(PID.TID 0000.0001) //         No. X exchanges =           5900
(PID.TID 0000.0001) //            Max. X spins =              1
(PID.TID 0000.0001) //            Min. X spins =              1
(PID.TID 0000.0001) //          Total. X spins =           5900
(PID.TID 0000.0001) //            Avg. X spins =       1.00E+00
(PID.TID 0000.0001) //         No. Y exchanges =           5900
(PID.TID 0000.0001) //            Max. Y spins =              1
(PID.TID 0000.0001) //            Min. Y spins =              1
(PID.TID 0000.0001) //          Total. Y spins =           5900
(PID.TID 0000.0001) //            Avg. Y spins =       1.00E+00
(PID.TID 0000.0001) // o Thread number: 000001
(PID.TID 0000.0001) //            No. barriers =              0
(PID.TID 0000.0001) //      Max. barrier spins =              0
(PID.TID 0000.0001) //      Min. barrier spins =     1000000000
(PID.TID 0000.0001) //     Total barrier spins =              0
(PID.TID 0000.0001) //      Avg. barrier spins =       0.00E+00
