(PID.TID 0000.0001) 
(PID.TID 0000.0001) // ======================================================
(PID.TID 0000.0001) //                      MITgcm UV
(PID.TID 0000.0001) //                      =========
(PID.TID 0000.0001) // ======================================================
(PID.TID 0000.0001) // execution environment starting up...
(PID.TID 0000.0001) // Run starting Wed Apr  1 14:19:48 1998
(PID.TID 0000.0001) // on melville.lcs.mit.edu
(PID.TID 0000.0001) // account cnh
(PID.TID 0000.0001) // MITgcm UV Release: $Name$
(PID.TID 0000.0001) 
(PID.TID 0000.0001) // =======================================================
(PID.TID 0000.0001) // Execution Environment parameter file "eedata"
(PID.TID 0000.0001) // =======================================================
(PID.TID 0000.0001) ># Example "eedata" file
(PID.TID 0000.0001) ># Lines beginning "#" are comments
(PID.TID 0000.0001) ># nTx - No. threads per process in X
(PID.TID 0000.0001) ># nTy - No. threads per process in Y
(PID.TID 0000.0001) > &EEPARMS
(PID.TID 0000.0001) > nTx=1,nTy=1
(PID.TID 0000.0001) > &
(PID.TID 0000.0001) ># Note: Some systems use & as the
(PID.TID 0000.0001) ># namelist terminator. Other systems
(PID.TID 0000.0001) ># use a / character (as shown here).
(PID.TID 0000.0001) 
(PID.TID 0000.0001) // =======================================================
(PID.TID 0000.0001) // Computational Grid Specification ( see files "SIZE.h" )
(PID.TID 0000.0001) //                                  ( and "eedata"       )
(PID.TID 0000.0001) // =======================================================
(PID.TID 0000.0001)      nPx =    1 ; /* No. processes in X */
(PID.TID 0000.0001)      nPy =    1 ; /* No. processes in Y */
(PID.TID 0000.0001)      nSx =    1 ; /* No. tiles in X per process */
(PID.TID 0000.0001)      nSy =    1 ; /* No. tiles in Y per process */
(PID.TID 0000.0001)      sNx =    1 ; /* Tile size in X */
(PID.TID 0000.0001)      sNy =   32 ; /* Tile size in Y */
(PID.TID 0000.0001)      OLx =    3 ; /* Tile overlap distance in X */
(PID.TID 0000.0001)      OLy =    3 ; /* Tile overlap distance in Y */
(PID.TID 0000.0001)      nTx =    1 ; /* No. threads in X per process */
(PID.TID 0000.0001)      nTy =    1 ; /* No. threads in Y per process */
(PID.TID 0000.0001)       Nr =   15 ; /* No. levels in the vertical   */
(PID.TID 0000.0001)       nX =    1 ; /* Total domain size in X ( = nPx*nSx*sNx ) */
(PID.TID 0000.0001)       nY =   32 ; /* Total domain size in Y ( = nPy*nSy*sNy ) */
(PID.TID 0000.0001)   nTiles =    1 ; /* Total no. tiles per process ( = nSx*nSy ) */
(PID.TID 0000.0001)   nProcs =    1 ; /* Total no. processes ( = nPx*nPy ) */
(PID.TID 0000.0001) nThreads =    1 ; /* Total no. threads per process ( = nTx*nTy ) */
(PID.TID 0000.0001) usingMPI =    F ; /* Flag used to control whether MPI is in use */
(PID.TID 0000.0001)                   /*  note: To execute a program with MPI calls */
(PID.TID 0000.0001)                   /*  it must be launched appropriately e.g     */
(PID.TID 0000.0001)                   /*  "mpirun -np 64 ......"                    */
(PID.TID 0000.0001) 
(PID.TID 0000.0001) // ======================================================
(PID.TID 0000.0001) // Mapping of tiles to threads
(PID.TID 0000.0001) // ======================================================
(PID.TID 0000.0001) // -o- Thread   1, tiles (   1:   1,   1:   1)
(PID.TID 0000.0001) 
(PID.TID 0000.0001) // ======================================================
(PID.TID 0000.0001) // Tile <-> Tile connectvity table
(PID.TID 0000.0001) // ======================================================
(PID.TID 0000.0001) // Tile number: 000001 (process no. = 000001)
(PID.TID 0000.0001) //        WEST: Tile = 000001, Process = 000001, Comm = put
(PID.TID 0000.0001) //                bi = 000001, bj = 000001
(PID.TID 0000.0001) //        EAST: Tile = 000001, Process = 000001, Comm = put
(PID.TID 0000.0001) //                bi = 000001, bj = 000001
(PID.TID 0000.0001) //       SOUTH: Tile = 000001, Process = 000001, Comm = put
(PID.TID 0000.0001) //                bi = 000001, bj = 000001
(PID.TID 0000.0001) //       NORTH: Tile = 000001, Process = 000001, Comm = put
(PID.TID 0000.0001) //                bi = 000001, bj = 000001
(PID.TID 0000.0001) 
(PID.TID 0000.0001) // =======================================================
(PID.TID 0000.0001) // Model parameter file "data"
(PID.TID 0000.0001) // =======================================================
(PID.TID 0000.0001) ># ====================
(PID.TID 0000.0001) ># | Model parameters |
(PID.TID 0000.0001) ># ====================
(PID.TID 0000.0001) >#
(PID.TID 0000.0001) ># Continuous equation parameters
(PID.TID 0000.0001) > &PARM01
(PID.TID 0000.0001) > viscAz=1.E-3,
(PID.TID 0000.0001) > viscA4=1.E11,
(PID.TID 0000.0001) > no_slip_sides=.FALSE.,
(PID.TID 0000.0001) > no_slip_bottom=.FALSE.,
(PID.TID 0000.0001) > diffKzT=3.E-5,
(PID.TID 0000.0001) > diffKzS=3.E-5,
(PID.TID 0000.0001) > beta=0.E-11,
(PID.TID 0000.0001) > f0=1.e-4,
(PID.TID 0000.0001) > tAlpha=2.E-4,
(PID.TID 0000.0001) > sBeta =0.E-4,
(PID.TID 0000.0001) > gravity=9.81,
(PID.TID 0000.0001) > rhoConst=1000.,
(PID.TID 0000.0001) > rhoNil=1000.,
(PID.TID 0000.0001) > rigidLid=.FALSE.,
(PID.TID 0000.0001) > implicitFreeSurface=.TRUE.,
(PID.TID 0000.0001) > eosType='LINEAR',
(PID.TID 0000.0001) > diffKhT=0.E3,
(PID.TID 0000.0001) > diffKhS=0.E3,
(PID.TID 0000.0001) > readBinaryPrec=64,
(PID.TID 0000.0001) > writeBinaryPrec=64,
(PID.TID 0000.0001) > implicitDiffusion=.TRUE.,
(PID.TID 0000.0001) > &
(PID.TID 0000.0001) >
(PID.TID 0000.0001) ># Elliptic solver parameters
(PID.TID 0000.0001) > &PARM02
(PID.TID 0000.0001) > cg2dMaxIters=1000,
(PID.TID 0000.0001) > cg2dTargetResidual=1.E-13,
(PID.TID 0000.0001) > &
(PID.TID 0000.0001) >
(PID.TID 0000.0001) ># Time stepping parameters
(PID.TID 0000.0001) > &PARM03
(PID.TID 0000.0001) > startTime=0,
(PID.TID 0000.0001) > endTime=8640000.,
(PID.TID 0000.0001) > deltaT=1800.0,
(PID.TID 0000.0001) > cAdjFreq=-1.,
(PID.TID 0000.0001) > abEps=0.1,
(PID.TID 0000.0001) > pChkptFreq=0.0,
(PID.TID 0000.0001) > chkptFreq=0.0,
(PID.TID 0000.0001) > dumpFreq=8640000.0,
(PID.TID 0000.0001) > &
(PID.TID 0000.0001) >
(PID.TID 0000.0001) ># Gridding parameters
(PID.TID 0000.0001) > &PARM04
(PID.TID 0000.0001) > usingCartesianGrid=.TRUE.,
(PID.TID 0000.0001) > usingSphericalPolarGrid=.FALSE.,
(PID.TID 0000.0001) > delZ= 50., 50., 55., 60., 65., 70., 80., 95.,
(PID.TID 0000.0001) >       120., 155., 200., 260., 320., 400., 480.,
(PID.TID 0000.0001) > delX=64*10.E3,
(PID.TID 0000.0001) >#delY=32*10.E3,
(PID.TID 0000.0001) > delYfile='dy.bin',
(PID.TID 0000.0001) > &
(PID.TID 0000.0001) >
(PID.TID 0000.0001) ># Input datasets
(PID.TID 0000.0001) > &PARM05
(PID.TID 0000.0001) > hydrogThetaFile='theta.bin',
(PID.TID 0000.0001) > hydrogSaltFile='salt.bin',
(PID.TID 0000.0001) > bathyFile='topog.bin',
(PID.TID 0000.0001) > &
(PID.TID 0000.0001) >
(PID.TID 0000.0001) ># Open-boundaries
(PID.TID 0000.0001) > &PARM06
(PID.TID 0000.0001) > &
(PID.TID 0000.0001) 
(PID.TID 0000.0001)  MDSREADFIELD: opening global file: topog.bin
(PID.TID 0000.0001) // =======================================================
(PID.TID 0000.0001) // Field Model depths at iteration          1
(PID.TID 0000.0001) // CMIN =         -2.460000000000000E+03
(PID.TID 0000.0001) // CMAX =         -2.460000000000000E+03
(PID.TID 0000.0001) // CINT =          0.000000000000000E+00
(PID.TID 0000.0001) // SYMBOLS (CMIN->CMAX): -abcdefghijklmnopqrstuvwxyz+
(PID.TID 0000.0001) //                  0.0: .
(PID.TID 0000.0001) // RANGE I (Lo:Hi:Step):(  -2:   4:   1)
(PID.TID 0000.0001) // RANGE J (Lo:Hi:Step):(  35:  -2:  -1)
(PID.TID 0000.0001) // RANGE K (Lo:Hi:Step):(   1:   1:   1)
(PID.TID 0000.0001) // =======================================================
(PID.TID 0000.0001) K =   1
(PID.TID 0000.0001) //
(PID.TID 0000.0001) // |--J--|**01234
(PID.TID 0000.0001) //     35 -------
(PID.TID 0000.0001) //     34 -------
(PID.TID 0000.0001) //     33 -------
(PID.TID 0000.0001) //     32 .......
(PID.TID 0000.0001) //     31 -------
(PID.TID 0000.0001) //     30 -------
(PID.TID 0000.0001) //     29 -------
(PID.TID 0000.0001) //     28 -------
(PID.TID 0000.0001) //     27 -------
(PID.TID 0000.0001) //     26 -------
(PID.TID 0000.0001) //     25 -------
(PID.TID 0000.0001) //     24 -------
(PID.TID 0000.0001) //     23 -------
(PID.TID 0000.0001) //     22 -------
(PID.TID 0000.0001) //     21 -------
(PID.TID 0000.0001) //     20 -------
(PID.TID 0000.0001) //     19 -------
(PID.TID 0000.0001) //     18 -------
(PID.TID 0000.0001) //     17 -------
(PID.TID 0000.0001) //     16 -------
(PID.TID 0000.0001) //     15 -------
(PID.TID 0000.0001) //     14 -------
(PID.TID 0000.0001) //     13 -------
(PID.TID 0000.0001) //     12 -------
(PID.TID 0000.0001) //     11 -------
(PID.TID 0000.0001) //     10 -------
(PID.TID 0000.0001) //      9 -------
(PID.TID 0000.0001) //      8 -------
(PID.TID 0000.0001) //      7 -------
(PID.TID 0000.0001) //      6 -------
(PID.TID 0000.0001) //      5 -------
(PID.TID 0000.0001) //      4 -------
(PID.TID 0000.0001) //      3 -------
(PID.TID 0000.0001) //      2 -------
(PID.TID 0000.0001) //      1 -------
(PID.TID 0000.0001) //      0 .......
(PID.TID 0000.0001) //     -1 -------
(PID.TID 0000.0001) //     -2 -------
(PID.TID 0000.0001) // =======================================================
(PID.TID 0000.0001) // END OF FIELD                                          =
(PID.TID 0000.0001) // =======================================================
(PID.TID 0000.0001) 
(PID.TID 0000.0001) // =======================================================
(PID.TID 0000.0001) // Field Model Depths K Index at iteration          1
(PID.TID 0000.0001) // CMIN =          1.500000000000000E+01
(PID.TID 0000.0001) // CMAX =          1.500000000000000E+01
(PID.TID 0000.0001) // CINT =          0.000000000000000E+00
(PID.TID 0000.0001) // SYMBOLS (CMIN->CMAX): -abcdefghijklmnopqrstuvwxyz+
(PID.TID 0000.0001) //                  0.0: .
(PID.TID 0000.0001) // RANGE I (Lo:Hi:Step):(  -2:   4:   1)
(PID.TID 0000.0001) // RANGE J (Lo:Hi:Step):(  35:  -2:  -1)
(PID.TID 0000.0001) // RANGE K (Lo:Hi:Step):(   1:   1:   1)
(PID.TID 0000.0001) // =======================================================
(PID.TID 0000.0001) K =   1
(PID.TID 0000.0001) //
(PID.TID 0000.0001) // |--J--|**01234
(PID.TID 0000.0001) //     35 -------
(PID.TID 0000.0001) //     34 -------
(PID.TID 0000.0001) //     33 -------
(PID.TID 0000.0001) //     32 -------
(PID.TID 0000.0001) //     31 -------
(PID.TID 0000.0001) //     30 -------
(PID.TID 0000.0001) //     29 -------
(PID.TID 0000.0001) //     28 -------
(PID.TID 0000.0001) //     27 -------
(PID.TID 0000.0001) //     26 -------
(PID.TID 0000.0001) //     25 -------
(PID.TID 0000.0001) //     24 -------
(PID.TID 0000.0001) //     23 -------
(PID.TID 0000.0001) //     22 -------
(PID.TID 0000.0001) //     21 -------
(PID.TID 0000.0001) //     20 -------
(PID.TID 0000.0001) //     19 -------
(PID.TID 0000.0001) //     18 -------
(PID.TID 0000.0001) //     17 -------
(PID.TID 0000.0001) //     16 -------
(PID.TID 0000.0001) //     15 -------
(PID.TID 0000.0001) //     14 -------
(PID.TID 0000.0001) //     13 -------
(PID.TID 0000.0001) //     12 -------
(PID.TID 0000.0001) //     11 -------
(PID.TID 0000.0001) //     10 -------
(PID.TID 0000.0001) //      9 -------
(PID.TID 0000.0001) //      8 -------
(PID.TID 0000.0001) //      7 -------
(PID.TID 0000.0001) //      6 -------
(PID.TID 0000.0001) //      5 -------
(PID.TID 0000.0001) //      4 -------
(PID.TID 0000.0001) //      3 -------
(PID.TID 0000.0001) //      2 -------
(PID.TID 0000.0001) //      1 -------
(PID.TID 0000.0001) //      0 -------
(PID.TID 0000.0001) //     -1 -------
(PID.TID 0000.0001) //     -2 -------
(PID.TID 0000.0001) // =======================================================
(PID.TID 0000.0001) // END OF FIELD                                          =
(PID.TID 0000.0001) // =======================================================
(PID.TID 0000.0001) 
(PID.TID 0000.0001) // CG2D normalisation factor =          0.3274931131840320692842627E-04
(PID.TID 0000.0001) 
(PID.TID 0000.0001)  PACKAGE_INIT: opening data.pkg
(PID.TID 0000.0001)  OPEN_COPY_DATA_FILE: opening file data.pkg
(PID.TID 0000.0001) // =======================================================
(PID.TID 0000.0001) // Parameter file "data.pkg"
(PID.TID 0000.0001) // =======================================================
(PID.TID 0000.0001) ># Packages
(PID.TID 0000.0001) > &PACKAGES
(PID.TID 0000.0001) >  useGMRedi=.TRUE.,
(PID.TID 0000.0001) >  useKPP=.FALSE.,
(PID.TID 0000.0001) > &
(PID.TID 0000.0001) 
(PID.TID 0000.0001)  PACKAGE_INIT: finished reading data.pkg
(PID.TID 0000.0001)  GM_INIT: opening data.gmredi
(PID.TID 0000.0001)  OPEN_COPY_DATA_FILE: opening file data.gmredi
(PID.TID 0000.0001) // =======================================================
(PID.TID 0000.0001) // Parameter file "data.gmredi"
(PID.TID 0000.0001) // =======================================================
(PID.TID 0000.0001) ># GM-Redi parameters
(PID.TID 0000.0001) > &GM_PARM01
(PID.TID 0000.0001) > GM_background_K=1000.d0,
(PID.TID 0000.0001) ># GM_taper_scheme=' ',
(PID.TID 0000.0001) > GM_maxSlope=1.000000000000000E-02
(PID.TID 0000.0001) ># GM_Scrit,
(PID.TID 0000.0001) ># GM_Sd
(PID.TID 0000.0001) > &
(PID.TID 0000.0001) >
(PID.TID 0000.0001) 
(PID.TID 0000.0001)  GM_INIT: finished reading data.gmredi
(PID.TID 0000.0001) // =======================================================
(PID.TID 0000.0001) // Model configuration
(PID.TID 0000.0001) // =======================================================
(PID.TID 0000.0001) //
(PID.TID 0000.0001) // "Physical" paramters ( PARM01 in namelist )
(PID.TID 0000.0001) //
(PID.TID 0000.0001) tRef =   /* Reference temperature profile ( oC or oK ) */
(PID.TID 0000.0001)                 2.900000000000000E+01,      /* K =  1 */
(PID.TID 0000.0001)                 2.800000000000000E+01,      /* K =  2 */
(PID.TID 0000.0001)                 2.700000000000000E+01,      /* K =  3 */
(PID.TID 0000.0001)                 2.600000000000000E+01,      /* K =  4 */
(PID.TID 0000.0001)                 2.500000000000000E+01,      /* K =  5 */
(PID.TID 0000.0001)                 2.400000000000000E+01,      /* K =  6 */
(PID.TID 0000.0001)                 2.300000000000000E+01,      /* K =  7 */
(PID.TID 0000.0001)                 2.200000000000000E+01,      /* K =  8 */
(PID.TID 0000.0001)                 2.100000000000000E+01,      /* K =  9 */
(PID.TID 0000.0001)                 2.000000000000000E+01,      /* K = 10 */
(PID.TID 0000.0001)                 1.900000000000000E+01,      /* K = 11 */
(PID.TID 0000.0001)                 1.800000000000000E+01,      /* K = 12 */
(PID.TID 0000.0001)                 1.700000000000000E+01,      /* K = 13 */
(PID.TID 0000.0001)                 1.600000000000000E+01,      /* K = 14 */
(PID.TID 0000.0001)                 1.500000000000000E+01       /* K = 15 */
(PID.TID 0000.0001)     ;
(PID.TID 0000.0001) sRef =   /* Reference salinity profile ( ppt ) */
(PID.TID 0000.0001)    15 @  0.000000000000000E+00              /* K =  1: 15 */
(PID.TID 0000.0001)     ;
(PID.TID 0000.0001) viscAh =   /* Lateral eddy viscosity ( m^2/s ) */
(PID.TID 0000.0001)                 0.000000000000000E+00
(PID.TID 0000.0001)     ;
(PID.TID 0000.0001) viscAh =   /* Lateral biharmonic viscosity ( m^4/s ) */
(PID.TID 0000.0001)                 1.000000000000000E+11
(PID.TID 0000.0001)     ;
(PID.TID 0000.0001) no_slip_sides =  /* Viscous BCs: No-slip sides */
(PID.TID 0000.0001)                   F
(PID.TID 0000.0001)     ;
(PID.TID 0000.0001) viscAz =   /* Vertical eddy viscosity ( m^2/s ) */
(PID.TID 0000.0001)                 1.000000000000000E-03
(PID.TID 0000.0001)     ;
(PID.TID 0000.0001) viscAr =   /* Vertical eddy viscosity ( units of r^2/s ) */
(PID.TID 0000.0001)                 1.000000000000000E-03
(PID.TID 0000.0001)     ;
(PID.TID 0000.0001) diffKhT =   /* Laplacian diffusion of heat laterally ( m^2/s ) */
(PID.TID 0000.0001)                 0.000000000000000E+00
(PID.TID 0000.0001)     ;
(PID.TID 0000.0001) diffK4T =   /* Bihaarmonic diffusion of heat laterally ( m^4/s ) */
(PID.TID 0000.0001)                 0.000000000000000E+00
(PID.TID 0000.0001)     ;
(PID.TID 0000.0001) diffKzT =   /* Laplacian diffusion of heat vertically ( m^2/s ) */
(PID.TID 0000.0001)                 3.000000000000000E-05
(PID.TID 0000.0001)     ;
(PID.TID 0000.0001) diffKrT =   /* Laplacian diffusion of heat vertically ( m^2/s ) */
(PID.TID 0000.0001)                 3.000000000000000E-05
(PID.TID 0000.0001)     ;
(PID.TID 0000.0001) diffKhS =   /* Laplacian diffusion of salt laterally ( m^2/s ) */
(PID.TID 0000.0001)                 0.000000000000000E+00
(PID.TID 0000.0001)     ;
(PID.TID 0000.0001) diffK4S =   /* Bihaarmonic diffusion of salt laterally ( m^4/s ) */
(PID.TID 0000.0001)                 0.000000000000000E+00
(PID.TID 0000.0001)     ;
(PID.TID 0000.0001) diffKzS =   /* Laplacian diffusion of salt vertically ( m^2/s ) */
(PID.TID 0000.0001)                 3.000000000000000E-05
(PID.TID 0000.0001)     ;
(PID.TID 0000.0001) diffKrS =   /* Laplacian diffusion of salt vertically ( m^2/s ) */
(PID.TID 0000.0001)                 3.000000000000000E-05
(PID.TID 0000.0001)     ;
(PID.TID 0000.0001) tAlpha =   /* Linear EOS thermal expansion coefficient ( 1/degree ) */
(PID.TID 0000.0001)                 2.000000000000000E-04
(PID.TID 0000.0001)     ;
(PID.TID 0000.0001) sBeta =   /* Linear EOS haline contraction coefficient ( 1/ppt ) */
(PID.TID 0000.0001)                 0.000000000000000E+00
(PID.TID 0000.0001)     ;
(PID.TID 0000.0001) rhonil =   /* Reference density ( kg/m^3 ) */
(PID.TID 0000.0001)                 1.000000000000000E+03
(PID.TID 0000.0001)     ;
(PID.TID 0000.0001) rhoConst =   /* Reference density ( kg/m^3 ) */
(PID.TID 0000.0001)                 1.000000000000000E+03
(PID.TID 0000.0001)     ;
(PID.TID 0000.0001) gravity =   /* Gravitational acceleration ( m/s^2 ) */
(PID.TID 0000.0001)                 9.810000000000000E+00
(PID.TID 0000.0001)     ;
(PID.TID 0000.0001) gBaro =   /* Barotropic gravity ( m/s^2 ) */
(PID.TID 0000.0001)                 9.810000000000000E+00
(PID.TID 0000.0001)     ;
(PID.TID 0000.0001) f0 =   /* Reference coriolis parameter ( 1/s ) */
(PID.TID 0000.0001)                 1.000000000000000E-04
(PID.TID 0000.0001)     ;
(PID.TID 0000.0001) beta =   /* Beta ( 1/(m.s) ) */
(PID.TID 0000.0001)                 0.000000000000000E+00
(PID.TID 0000.0001)     ;
(PID.TID 0000.0001) freeSurfFac =   /* Implcit free surface factor */
(PID.TID 0000.0001)                 1.000000000000000E+00
(PID.TID 0000.0001)     ;
(PID.TID 0000.0001) implicitFreeSurface =   /* Implicit free surface on/off flag */
(PID.TID 0000.0001)                   T
(PID.TID 0000.0001)     ;
(PID.TID 0000.0001) rigidLid =   /* Rigid lid on/off flag */
(PID.TID 0000.0001)                   F
(PID.TID 0000.0001)     ;
(PID.TID 0000.0001) momStepping =  /* Momentum equation on/off flag */
(PID.TID 0000.0001)                   T
(PID.TID 0000.0001)     ;
(PID.TID 0000.0001) momAdvection =  /* Momentum advection on/off flag */
(PID.TID 0000.0001)                   T
(PID.TID 0000.0001)     ;
(PID.TID 0000.0001) momViscosity =  /* Momentum viscosity on/off flag */
(PID.TID 0000.0001)                   T
(PID.TID 0000.0001)     ;
(PID.TID 0000.0001) useCoriolis =  /* Coriolis on/off flag */
(PID.TID 0000.0001)                   T
(PID.TID 0000.0001)     ;
(PID.TID 0000.0001) momForcing =  /* Momentum forcing on/off flag */
(PID.TID 0000.0001)                   T
(PID.TID 0000.0001)     ;
(PID.TID 0000.0001) momPressureForcing =  /* Momentum pressure term on/off flag */
(PID.TID 0000.0001)                   T
(PID.TID 0000.0001)     ;
(PID.TID 0000.0001) tempStepping =  /* Temperature equation on/off flag */
(PID.TID 0000.0001)                   T
(PID.TID 0000.0001)     ;
(PID.TID 0000.0001) openBoundaries =  /* OpenBoundaries on/off flag */
(PID.TID 0000.0001)                   F
(PID.TID 0000.0001)     ;
(PID.TID 0000.0001) nonHydrostatic =  /* Non-Hydrostatic on/off flag */
(PID.TID 0000.0001)                   F
(PID.TID 0000.0001)     ;
(PID.TID 0000.0001) //
(PID.TID 0000.0001) // Elliptic solver(s) paramters ( PARM02 in namelist )
(PID.TID 0000.0001) //
(PID.TID 0000.0001) cg2dMaxIters =   /* Upper limit on 2d con. grad iterations  */
(PID.TID 0000.0001)                    1000
(PID.TID 0000.0001)     ;
(PID.TID 0000.0001) cg2dChkResFreq =   /* 2d con. grad convergence test frequency */
(PID.TID 0000.0001)                       1
(PID.TID 0000.0001)     ;
(PID.TID 0000.0001) cg2dTargetResidual =   /* 2d con. grad target residual  */
(PID.TID 0000.0001)                 1.000000000000000E-13
(PID.TID 0000.0001)     ;
(PID.TID 0000.0001) //
(PID.TID 0000.0001) // Time stepping paramters ( PARM03 in namelist )
(PID.TID 0000.0001) //
(PID.TID 0000.0001) nIter0 =   /* Base timestep number  */
(PID.TID 0000.0001)                       0
(PID.TID 0000.0001)     ;
(PID.TID 0000.0001) nTimeSteps =   /* Number of timesteps */
(PID.TID 0000.0001)                    4800
(PID.TID 0000.0001)     ;
(PID.TID 0000.0001) deltatTmom =   /* Momentum equation timestep ( s ) */
(PID.TID 0000.0001)                 1.800000000000000E+03
(PID.TID 0000.0001)     ;
(PID.TID 0000.0001) deltatTtracer =   /* Tracer equation timestep ( s ) */
(PID.TID 0000.0001)                 1.800000000000000E+03
(PID.TID 0000.0001)     ;
(PID.TID 0000.0001) deltatTClock  =   /* Model clock timestep ( s ) */
(PID.TID 0000.0001)                 1.800000000000000E+03
(PID.TID 0000.0001)     ;
(PID.TID 0000.0001) cAdjFreq =   /* Convective adjustment interval ( s ) */
(PID.TID 0000.0001)                 1.800000000000000E+03
(PID.TID 0000.0001)     ;
(PID.TID 0000.0001) abeps =   /* Adams-Bashforth stabilizing weight */
(PID.TID 0000.0001)                 1.000000000000000E-01
(PID.TID 0000.0001)     ;
(PID.TID 0000.0001) tauCD =   /* CD coupling time-scale ( s ) */
(PID.TID 0000.0001)                 1.800000000000000E+03
(PID.TID 0000.0001)     ;
(PID.TID 0000.0001) rCD =   /* Normalised CD coupling parameter */
(PID.TID 0000.0001)                 0.000000000000000E+00
(PID.TID 0000.0001)     ;
(PID.TID 0000.0001) startTime =   /* Run start time ( s ). */
(PID.TID 0000.0001)                 0.000000000000000E+00
(PID.TID 0000.0001)     ;
(PID.TID 0000.0001) endTime =   /* Integration ending time ( s ). */
(PID.TID 0000.0001)                 8.640000000000000E+06
(PID.TID 0000.0001)     ;
(PID.TID 0000.0001) pChkPtFreq =   /* Permanent restart/checkpoint file interval ( s ). */
(PID.TID 0000.0001)                 0.000000000000000E+00
(PID.TID 0000.0001)     ;
(PID.TID 0000.0001) chkPtFreq =   /* Rolling restart/checkpoint file interval ( s ). */
(PID.TID 0000.0001)                 0.000000000000000E+00
(PID.TID 0000.0001)     ;
(PID.TID 0000.0001) dumpFreq =   /* Model state write out interval ( s ). */
(PID.TID 0000.0001)                 8.640000000000000E+06
(PID.TID 0000.0001)     ;
(PID.TID 0000.0001) //
(PID.TID 0000.0001) // Gridding paramters ( PARM04 in namelist )
(PID.TID 0000.0001) //
(PID.TID 0000.0001) usingCartesianGrid =   /* Cartesian coordinates flag ( True / False ) */
(PID.TID 0000.0001)                   T
(PID.TID 0000.0001)     ;
(PID.TID 0000.0001) usingSphericalPolarGrid =   /* Spherical coordinates flag ( True / False ) */
(PID.TID 0000.0001)                   F
(PID.TID 0000.0001)     ;
(PID.TID 0000.0001) delZ =    /* W spacing ( m ) */
(PID.TID 0000.0001)     2 @  5.000000000000000E+01,             /* K =  1:  2 */
(PID.TID 0000.0001)                 5.500000000000000E+01,      /* K =  3 */
(PID.TID 0000.0001)                 6.000000000000000E+01,      /* K =  4 */
(PID.TID 0000.0001)                 6.500000000000000E+01,      /* K =  5 */
(PID.TID 0000.0001)                 7.000000000000000E+01,      /* K =  6 */
(PID.TID 0000.0001)                 8.000000000000000E+01,      /* K =  7 */
(PID.TID 0000.0001)                 9.500000000000000E+01,      /* K =  8 */
(PID.TID 0000.0001)                 1.200000000000000E+02,      /* K =  9 */
(PID.TID 0000.0001)                 1.550000000000000E+02,      /* K = 10 */
(PID.TID 0000.0001)                 2.000000000000000E+02,      /* K = 11 */
(PID.TID 0000.0001)                 2.600000000000000E+02,      /* K = 12 */
(PID.TID 0000.0001)                 3.200000000000000E+02,      /* K = 13 */
(PID.TID 0000.0001)                 4.000000000000000E+02,      /* K = 14 */
(PID.TID 0000.0001)                 4.800000000000000E+02       /* K = 15 */
(PID.TID 0000.0001)     ;
(PID.TID 0000.0001) delP =    /* W spacing ( Pa ) */
(PID.TID 0000.0001)    15 @  1.234567000000000E+05              /* K =  1: 15 */
(PID.TID 0000.0001)     ;
(PID.TID 0000.0001) delR =    /* W spacing ( units of r ) */
(PID.TID 0000.0001)     2 @  5.000000000000000E+01,             /* K =  1:  2 */
(PID.TID 0000.0001)                 5.500000000000000E+01,      /* K =  3 */
(PID.TID 0000.0001)                 6.000000000000000E+01,      /* K =  4 */
(PID.TID 0000.0001)                 6.500000000000000E+01,      /* K =  5 */
(PID.TID 0000.0001)                 7.000000000000000E+01,      /* K =  6 */
(PID.TID 0000.0001)                 8.000000000000000E+01,      /* K =  7 */
(PID.TID 0000.0001)                 9.500000000000000E+01,      /* K =  8 */
(PID.TID 0000.0001)                 1.200000000000000E+02,      /* K =  9 */
(PID.TID 0000.0001)                 1.550000000000000E+02,      /* K = 10 */
(PID.TID 0000.0001)                 2.000000000000000E+02,      /* K = 11 */
(PID.TID 0000.0001)                 2.600000000000000E+02,      /* K = 12 */
(PID.TID 0000.0001)                 3.200000000000000E+02,      /* K = 13 */
(PID.TID 0000.0001)                 4.000000000000000E+02,      /* K = 14 */
(PID.TID 0000.0001)                 4.800000000000000E+02       /* K = 15 */
(PID.TID 0000.0001)     ;
(PID.TID 0000.0001) delX =    /* U spacing ( m - cartesian, degrees - spherical ) */
(PID.TID 0000.0001)                 1.000000000000000E+04       /* I =  1 */
(PID.TID 0000.0001)     ;
(PID.TID 0000.0001) delY =    /* V spacing ( m - cartesian, degrees - spherical ) */
(PID.TID 0000.0001)                 1.121845490233872E+04,      /* J =  1 */
(PID.TID 0000.0001)                 1.120417408127598E+04,      /* J =  2 */
(PID.TID 0000.0001)                 1.117790763965009E+04,      /* J =  3 */
(PID.TID 0000.0001)                 1.113214211541110E+04,      /* J =  4 */
(PID.TID 0000.0001)                 1.105667354210767E+04,      /* J =  5 */
(PID.TID 0000.0001)                 1.093902768829823E+04,      /* J =  6 */
(PID.TID 0000.0001)                 1.076592279809904E+04,      /* J =  7 */
(PID.TID 0000.0001)                 1.052599385487605E+04,      /* J =  8 */
(PID.TID 0000.0001)                 1.021361421186628E+04,      /* J =  9 */
(PID.TID 0000.0001)                 9.833098593630379E+03,      /* J = 10 */
(PID.TID 0000.0001)                 9.402036775610259E+03,      /* J = 11 */
(PID.TID 0000.0001)                 8.952270066930356E+03,      /* J = 12 */
(PID.TID 0000.0001)                 8.527336484962450E+03,      /* J = 13 */
(PID.TID 0000.0001)                 8.176138828117387E+03,      /* J = 14 */
(PID.TID 0000.0001)                 7.943896227202051E+03,      /* J = 15 */
(PID.TID 0000.0001)                 7.862624379247893E+03,      /* J = 16 */
(PID.TID 0000.0001)                 7.943896227202051E+03,      /* J = 17 */
(PID.TID 0000.0001)                 8.176138828117387E+03,      /* J = 18 */
(PID.TID 0000.0001)                 8.527336484962450E+03,      /* J = 19 */
(PID.TID 0000.0001)                 8.952270066930356E+03,      /* J = 20 */
(PID.TID 0000.0001)                 9.402036775610259E+03,      /* J = 21 */
(PID.TID 0000.0001)                 9.833098593630379E+03,      /* J = 22 */
(PID.TID 0000.0001)                 1.021361421186628E+04,      /* J = 23 */
(PID.TID 0000.0001)                 1.052599385487605E+04,      /* J = 24 */
(PID.TID 0000.0001)                 1.076592279809904E+04,      /* J = 25 */
(PID.TID 0000.0001)                 1.093902768829823E+04,      /* J = 26 */
(PID.TID 0000.0001)                 1.105667354210767E+04,      /* J = 27 */
(PID.TID 0000.0001)                 1.113214211541110E+04,      /* J = 28 */
(PID.TID 0000.0001)                 1.117790763965009E+04,      /* J = 29 */
(PID.TID 0000.0001)                 1.120417408127598E+04,      /* J = 30 */
(PID.TID 0000.0001)                 1.121845490233872E+04,      /* J = 31 */
(PID.TID 0000.0001)                 1.122581549788791E+04       /* J = 32 */
(PID.TID 0000.0001)     ;
(PID.TID 0000.0001) phiMin =    /* South edge (ignored - cartesian, degrees - spherical ) */
(PID.TID 0000.0001)                 0.000000000000000E+00
(PID.TID 0000.0001)     ;
(PID.TID 0000.0001) thetaMin =    /* West edge ( ignored - cartesian, degrees - spherical ) */
(PID.TID 0000.0001)                 0.000000000000000E+00
(PID.TID 0000.0001)     ;
(PID.TID 0000.0001) rSphere =    /* Radius ( ignored - cartesian, m - spherical ) */
(PID.TID 0000.0001)                 6.370000000000000E+06
(PID.TID 0000.0001)     ;
(PID.TID 0000.0001) xcoord =    /* P-point X coord ( m - cartesian, degrees - spherical ) */
(PID.TID 0000.0001)                 5.000000000000000E+03       /* I =  1 */
(PID.TID 0000.0001)     ;
(PID.TID 0000.0001) ycoord =    /* P-point Y coord ( m - cartesian, degrees - spherical ) */
(PID.TID 0000.0001)                 5.609227451169359E+03,      /* J =  1 */
(PID.TID 0000.0001)                 1.682054194297671E+04,      /* J =  2 */
(PID.TID 0000.0001)                 2.801158280343974E+04,      /* J =  3 */
(PID.TID 0000.0001)                 3.916660768097033E+04,      /* J =  4 */
(PID.TID 0000.0001)                 5.026101550972972E+04,      /* J =  5 */
(PID.TID 0000.0001)                 6.125886612493267E+04,      /* J =  6 */
(PID.TID 0000.0001)                 7.211134136813131E+04,      /* J =  7 */
(PID.TID 0000.0001)                 8.275729969461885E+04,      /* J =  8 */
(PID.TID 0000.0001)                 9.312710372799002E+04,      /* J =  9 */
(PID.TID 0000.0001)                 1.031504601307383E+05,      /* J = 10 */
(PID.TID 0000.0001)                 1.127680278153587E+05,      /* J = 11 */
(PID.TID 0000.0001)                 1.219451812366290E+05,      /* J = 12 */
(PID.TID 0000.0001)                 1.306849845125754E+05,      /* J = 13 */
(PID.TID 0000.0001)                 1.390367221691153E+05,      /* J = 14 */
(PID.TID 0000.0001)                 1.470967396967750E+05,      /* J = 15 */
(PID.TID 0000.0001)                 1.550000000000000E+05,      /* J = 16 */
(PID.TID 0000.0001)                 1.629032603032250E+05,      /* J = 17 */
(PID.TID 0000.0001)                 1.709632778308847E+05,      /* J = 18 */
(PID.TID 0000.0001)                 1.793150154874246E+05,      /* J = 19 */
(PID.TID 0000.0001)                 1.880548187633710E+05,      /* J = 20 */
(PID.TID 0000.0001)                 1.972319721846413E+05,      /* J = 21 */
(PID.TID 0000.0001)                 2.068495398692616E+05,      /* J = 22 */
(PID.TID 0000.0001)                 2.168728962720099E+05,      /* J = 23 */
(PID.TID 0000.0001)                 2.272427003053811E+05,      /* J = 24 */
(PID.TID 0000.0001)                 2.378886586318687E+05,      /* J = 25 */
(PID.TID 0000.0001)                 2.487411338750673E+05,      /* J = 26 */
(PID.TID 0000.0001)                 2.597389844902703E+05,      /* J = 27 */
(PID.TID 0000.0001)                 2.708333923190296E+05,      /* J = 28 */
(PID.TID 0000.0001)                 2.819884171965602E+05,      /* J = 29 */
(PID.TID 0000.0001)                 2.931794580570232E+05,      /* J = 30 */
(PID.TID 0000.0001)                 3.043907725488306E+05,      /* J = 31 */
(PID.TID 0000.0001)                 3.156129077489439E+05       /* J = 32 */
(PID.TID 0000.0001)     ;
(PID.TID 0000.0001) rcoord =    /* P-point R coordinate (  units of r ) */
(PID.TID 0000.0001)                -2.500000000000000E+01,      /* K =  1 */
(PID.TID 0000.0001)                -7.500000000000000E+01,      /* K =  2 */
(PID.TID 0000.0001)                -1.275000000000000E+02,      /* K =  3 */
(PID.TID 0000.0001)                -1.850000000000000E+02,      /* K =  4 */
(PID.TID 0000.0001)                -2.475000000000000E+02,      /* K =  5 */
(PID.TID 0000.0001)                -3.150000000000000E+02,      /* K =  6 */
(PID.TID 0000.0001)                -3.900000000000000E+02,      /* K =  7 */
(PID.TID 0000.0001)                -4.775000000000000E+02,      /* K =  8 */
(PID.TID 0000.0001)                -5.850000000000000E+02,      /* K =  9 */
(PID.TID 0000.0001)                -7.225000000000000E+02,      /* K = 10 */
(PID.TID 0000.0001)                -9.000000000000000E+02,      /* K = 11 */
(PID.TID 0000.0001)                -1.130000000000000E+03,      /* K = 12 */
(PID.TID 0000.0001)                -1.420000000000000E+03,      /* K = 13 */
(PID.TID 0000.0001)                -1.780000000000000E+03,      /* K = 14 */
(PID.TID 0000.0001)                -2.220000000000000E+03       /* K = 15 */
(PID.TID 0000.0001)     ;
(PID.TID 0000.0001) 
(PID.TID 0000.0001)  MDSREADFIELD: opening global file: theta.bin
(PID.TID 0000.0001) // =======================================================
(PID.TID 0000.0001) // Field Initial Temperature at iteration          1
(PID.TID 0000.0001) // CMIN =          1.931863052083373E+01
(PID.TID 0000.0001) // CMAX =          2.057943267998176E+01
(PID.TID 0000.0001) // CINT =          4.669637626474178E-02
(PID.TID 0000.0001) // SYMBOLS (CMIN->CMAX): -abcdefghijklmnopqrstuvwxyz+
(PID.TID 0000.0001) //                  0.0: .
(PID.TID 0000.0001) // RANGE I (Lo:Hi:Step):(   1:   1:   1)
(PID.TID 0000.0001) // RANGE J (Lo:Hi:Step):(  32:   1:  -1)
(PID.TID 0000.0001) // RANGE K (Lo:Hi:Step):(   1:   1:   1)
(PID.TID 0000.0001) // =======================================================
(PID.TID 0000.0001) K =   1
(PID.TID 0000.0001) 
(PID.TID 0000.0001) |--J--|1
(PID.TID 0000.0001)     32 .
(PID.TID 0000.0001)     31 -
(PID.TID 0000.0001)     30 -
(PID.TID 0000.0001)     29 a
(PID.TID 0000.0001)     28 a
(PID.TID 0000.0001)     27 b
(PID.TID 0000.0001)     26 c
(PID.TID 0000.0001)     25 c
(PID.TID 0000.0001)     24 d
(PID.TID 0000.0001)     23 f
(PID.TID 0000.0001)     22 g
(PID.TID 0000.0001)     21 h
(PID.TID 0000.0001)     20 i
(PID.TID 0000.0001)     19 j
(PID.TID 0000.0001)     18 k
(PID.TID 0000.0001)     17 l
(PID.TID 0000.0001)     16 n
(PID.TID 0000.0001)     15 o
(PID.TID 0000.0001)     14 p
(PID.TID 0000.0001)     13 q
(PID.TID 0000.0001)     12 r
(PID.TID 0000.0001)     11 s
(PID.TID 0000.0001)     10 t
(PID.TID 0000.0001)      9 u
(PID.TID 0000.0001)      8 w
(PID.TID 0000.0001)      7 x
(PID.TID 0000.0001)      6 x
(PID.TID 0000.0001)      5 y
(PID.TID 0000.0001)      4 z
(PID.TID 0000.0001)      3 z
(PID.TID 0000.0001)      2 +
(PID.TID 0000.0001)      1 +
(PID.TID 0000.0001) // =======================================================
(PID.TID 0000.0001) // END OF FIELD                                          =
(PID.TID 0000.0001) // =======================================================
(PID.TID 0000.0001) 
(PID.TID 0000.0001)  MDSREADFIELD: opening global file: salt.bin
(PID.TID 0000.0001) // =======================================================
(PID.TID 0000.0001) // Field Initial Salinity at iteration          1
(PID.TID 0000.0001) // CMIN =          3.949751277532912E-01
(PID.TID 0000.0001) // CMAX =          1.000000000000000E+00
(PID.TID 0000.0001) // CINT =          2.240832860172995E-02
(PID.TID 0000.0001) // SYMBOLS (CMIN->CMAX): -abcdefghijklmnopqrstuvwxyz+
(PID.TID 0000.0001) //                  0.0: .
(PID.TID 0000.0001) // RANGE I (Lo:Hi:Step):(   1:   1:   1)
(PID.TID 0000.0001) // RANGE J (Lo:Hi:Step):(  32:   1:  -1)
(PID.TID 0000.0001) // RANGE K (Lo:Hi:Step):(   1:   1:   1)
(PID.TID 0000.0001) // =======================================================
(PID.TID 0000.0001) K =   1
(PID.TID 0000.0001) 
(PID.TID 0000.0001) |--J--|1
(PID.TID 0000.0001)     32 .
(PID.TID 0000.0001)     31 -
(PID.TID 0000.0001)     30 c
(PID.TID 0000.0001)     29 e
(PID.TID 0000.0001)     28 h
(PID.TID 0000.0001)     27 k
(PID.TID 0000.0001)     26 m
(PID.TID 0000.0001)     25 p
(PID.TID 0000.0001)     24 r
(PID.TID 0000.0001)     23 t
(PID.TID 0000.0001)     22 v
(PID.TID 0000.0001)     21 x
(PID.TID 0000.0001)     20 y
(PID.TID 0000.0001)     19 z
(PID.TID 0000.0001)     18 +
(PID.TID 0000.0001)     17 +
(PID.TID 0000.0001)     16 +
(PID.TID 0000.0001)     15 +
(PID.TID 0000.0001)     14 +
(PID.TID 0000.0001)     13 z
(PID.TID 0000.0001)     12 y
(PID.TID 0000.0001)     11 x
(PID.TID 0000.0001)     10 v
(PID.TID 0000.0001)      9 t
(PID.TID 0000.0001)      8 r
(PID.TID 0000.0001)      7 p
(PID.TID 0000.0001)      6 m
(PID.TID 0000.0001)      5 k
(PID.TID 0000.0001)      4 h
(PID.TID 0000.0001)      3 e
(PID.TID 0000.0001)      2 c
(PID.TID 0000.0001)      1 -
(PID.TID 0000.0001) // =======================================================
(PID.TID 0000.0001) // END OF FIELD                                          =
(PID.TID 0000.0001) // =======================================================
(PID.TID 0000.0001) 
(PID.TID 0000.0001) // =======================================================
(PID.TID 0000.0001) // Model current state
(PID.TID 0000.0001) // =======================================================
(PID.TID 0000.0001) 
(PID.TID 0000.0001) // =======================================================
(PID.TID 0000.0001) // Field Current uVel   at iteration          0
(PID.TID 0000.0001) // CMIN =          1.000000000000000E+32
(PID.TID 0000.0001) // CMAX =         -1.000000000000000E+32
(PID.TID 0000.0001) // CINT =          0.000000000000000E+00
(PID.TID 0000.0001) // SYMBOLS (CMIN->CMAX): -abcdefghijklmnopqrstuvwxyz+
(PID.TID 0000.0001) //                  0.0: .
(PID.TID 0000.0001) // RANGE I (Lo:Hi:Step):(   1:   1:   1)
(PID.TID 0000.0001) // RANGE J (Lo:Hi:Step):(  32:   1:  -1)
(PID.TID 0000.0001) // RANGE K (Lo:Hi:Step):(   1:   1:   1)
(PID.TID 0000.0001) // =======================================================
(PID.TID 0000.0001) K =   1
(PID.TID 0000.0001) 
(PID.TID 0000.0001) |--J--|1
(PID.TID 0000.0001)     32 .
(PID.TID 0000.0001)     31 .
(PID.TID 0000.0001)     30 .
(PID.TID 0000.0001)     29 .
(PID.TID 0000.0001)     28 .
(PID.TID 0000.0001)     27 .
(PID.TID 0000.0001)     26 .
(PID.TID 0000.0001)     25 .
(PID.TID 0000.0001)     24 .
(PID.TID 0000.0001)     23 .
(PID.TID 0000.0001)     22 .
(PID.TID 0000.0001)     21 .
(PID.TID 0000.0001)     20 .
(PID.TID 0000.0001)     19 .
(PID.TID 0000.0001)     18 .
(PID.TID 0000.0001)     17 .
(PID.TID 0000.0001)     16 .
(PID.TID 0000.0001)     15 .
(PID.TID 0000.0001)     14 .
(PID.TID 0000.0001)     13 .
(PID.TID 0000.0001)     12 .
(PID.TID 0000.0001)     11 .
(PID.TID 0000.0001)     10 .
(PID.TID 0000.0001)      9 .
(PID.TID 0000.0001)      8 .
(PID.TID 0000.0001)      7 .
(PID.TID 0000.0001)      6 .
(PID.TID 0000.0001)      5 .
(PID.TID 0000.0001)      4 .
(PID.TID 0000.0001)      3 .
(PID.TID 0000.0001)      2 .
(PID.TID 0000.0001)      1 .
(PID.TID 0000.0001) // =======================================================
(PID.TID 0000.0001) // END OF FIELD                                          =
(PID.TID 0000.0001) // =======================================================
(PID.TID 0000.0001) 
(PID.TID 0000.0001) // =======================================================
(PID.TID 0000.0001) // Field Current vVel   at iteration          0
(PID.TID 0000.0001) // CMIN =          1.000000000000000E+32
(PID.TID 0000.0001) // CMAX =         -1.000000000000000E+32
(PID.TID 0000.0001) // CINT =          0.000000000000000E+00
(PID.TID 0000.0001) // SYMBOLS (CMIN->CMAX): -abcdefghijklmnopqrstuvwxyz+
(PID.TID 0000.0001) //                  0.0: .
(PID.TID 0000.0001) // RANGE I (Lo:Hi:Step):(   1:   1:   1)
(PID.TID 0000.0001) // RANGE J (Lo:Hi:Step):(  32:   1:  -1)
(PID.TID 0000.0001) // RANGE K (Lo:Hi:Step):(   1:   1:   1)
(PID.TID 0000.0001) // =======================================================
(PID.TID 0000.0001) K =   1
(PID.TID 0000.0001) 
(PID.TID 0000.0001) |--J--|1
(PID.TID 0000.0001)     32 .
(PID.TID 0000.0001)     31 .
(PID.TID 0000.0001)     30 .
(PID.TID 0000.0001)     29 .
(PID.TID 0000.0001)     28 .
(PID.TID 0000.0001)     27 .
(PID.TID 0000.0001)     26 .
(PID.TID 0000.0001)     25 .
(PID.TID 0000.0001)     24 .
(PID.TID 0000.0001)     23 .
(PID.TID 0000.0001)     22 .
(PID.TID 0000.0001)     21 .
(PID.TID 0000.0001)     20 .
(PID.TID 0000.0001)     19 .
(PID.TID 0000.0001)     18 .
(PID.TID 0000.0001)     17 .
(PID.TID 0000.0001)     16 .
(PID.TID 0000.0001)     15 .
(PID.TID 0000.0001)     14 .
(PID.TID 0000.0001)     13 .
(PID.TID 0000.0001)     12 .
(PID.TID 0000.0001)     11 .
(PID.TID 0000.0001)     10 .
(PID.TID 0000.0001)      9 .
(PID.TID 0000.0001)      8 .
(PID.TID 0000.0001)      7 .
(PID.TID 0000.0001)      6 .
(PID.TID 0000.0001)      5 .
(PID.TID 0000.0001)      4 .
(PID.TID 0000.0001)      3 .
(PID.TID 0000.0001)      2 .
(PID.TID 0000.0001)      1 .
(PID.TID 0000.0001) // =======================================================
(PID.TID 0000.0001) // END OF FIELD                                          =
(PID.TID 0000.0001) // =======================================================
(PID.TID 0000.0001) 
(PID.TID 0000.0001) // =======================================================
(PID.TID 0000.0001) // Field Current theta  at iteration          0
(PID.TID 0000.0001) // CMIN =          1.931863052083373E+01
(PID.TID 0000.0001) // CMAX =          2.057943267998176E+01
(PID.TID 0000.0001) // CINT =          4.669637626474178E-02
(PID.TID 0000.0001) // SYMBOLS (CMIN->CMAX): -abcdefghijklmnopqrstuvwxyz+
(PID.TID 0000.0001) //                  0.0: .
(PID.TID 0000.0001) // RANGE I (Lo:Hi:Step):(   1:   1:   1)
(PID.TID 0000.0001) // RANGE J (Lo:Hi:Step):(  32:   1:  -1)
(PID.TID 0000.0001) // RANGE K (Lo:Hi:Step):(   1:   1:   1)
(PID.TID 0000.0001) // =======================================================
(PID.TID 0000.0001) K =   1
(PID.TID 0000.0001) 
(PID.TID 0000.0001) |--J--|1
(PID.TID 0000.0001)     32 .
(PID.TID 0000.0001)     31 -
(PID.TID 0000.0001)     30 -
(PID.TID 0000.0001)     29 a
(PID.TID 0000.0001)     28 a
(PID.TID 0000.0001)     27 b
(PID.TID 0000.0001)     26 c
(PID.TID 0000.0001)     25 c
(PID.TID 0000.0001)     24 d
(PID.TID 0000.0001)     23 f
(PID.TID 0000.0001)     22 g
(PID.TID 0000.0001)     21 h
(PID.TID 0000.0001)     20 i
(PID.TID 0000.0001)     19 j
(PID.TID 0000.0001)     18 k
(PID.TID 0000.0001)     17 l
(PID.TID 0000.0001)     16 n
(PID.TID 0000.0001)     15 o
(PID.TID 0000.0001)     14 p
(PID.TID 0000.0001)     13 q
(PID.TID 0000.0001)     12 r
(PID.TID 0000.0001)     11 s
(PID.TID 0000.0001)     10 t
(PID.TID 0000.0001)      9 u
(PID.TID 0000.0001)      8 w
(PID.TID 0000.0001)      7 x
(PID.TID 0000.0001)      6 x
(PID.TID 0000.0001)      5 y
(PID.TID 0000.0001)      4 z
(PID.TID 0000.0001)      3 z
(PID.TID 0000.0001)      2 +
(PID.TID 0000.0001)      1 +
(PID.TID 0000.0001) // =======================================================
(PID.TID 0000.0001) // END OF FIELD                                          =
(PID.TID 0000.0001) // =======================================================
(PID.TID 0000.0001) 
(PID.TID 0000.0001) // =======================================================
(PID.TID 0000.0001) // Field Current cg2d_x  at iteration          0
(PID.TID 0000.0001) // CMIN =          1.000000000000000E+32
(PID.TID 0000.0001) // CMAX =         -1.000000000000000E+32
(PID.TID 0000.0001) // CINT =          0.000000000000000E+00
(PID.TID 0000.0001) // SYMBOLS (CMIN->CMAX): -abcdefghijklmnopqrstuvwxyz+
(PID.TID 0000.0001) //                  0.0: .
(PID.TID 0000.0001) // RANGE I (Lo:Hi:Step):(  -2:   4:   1)
(PID.TID 0000.0001) // RANGE J (Lo:Hi:Step):(  35:  -2:  -1)
(PID.TID 0000.0001) // RANGE K (Lo:Hi:Step):(   1:   1:   1)
(PID.TID 0000.0001) // =======================================================
(PID.TID 0000.0001) K =   1
(PID.TID 0000.0001) 
(PID.TID 0000.0001) |--J--|**01234
(PID.TID 0000.0001)     35 .......
(PID.TID 0000.0001)     34 .......
(PID.TID 0000.0001)     33 .......
(PID.TID 0000.0001)     32 .......
(PID.TID 0000.0001)     31 .......
(PID.TID 0000.0001)     30 .......
(PID.TID 0000.0001)     29 .......
(PID.TID 0000.0001)     28 .......
(PID.TID 0000.0001)     27 .......
(PID.TID 0000.0001)     26 .......
(PID.TID 0000.0001)     25 .......
(PID.TID 0000.0001)     24 .......
(PID.TID 0000.0001)     23 .......
(PID.TID 0000.0 cg2d: Sum(rhs) =           6.66133814775094E-16
 CG2D iters, err =      0          3.66988281473953E+00
 CG2D iters, err =     15          1.09605322630879E-14
 cg2d: Sum(rhs) =           2.22044604925031E-16
 CG2D iters, err =      0          6.65635827309413E-01
 CG2D iters, err =     29          1.45669923066419E-14
 cg2d: Sum(rhs) =           1.99840144432528E-15
 CG2D iters, err =      0          8.27340696377064E-01
 CG2D iters, err =     29          7.94986093002651E-14
 cg2d: Sum(rhs) =           1.22124532708767E-15
 CG2D iters, err =      0          5.14729068002603E-02
 CG2D iters, err =     29          7.35857987456701E-15
 cg2d: Sum(rhs) =           6.66133814775094E-16
 CG2D iters, err =      0          6.86016423747201E-02
 CG2D iters, err =     29          9.95187987988287E-15
 cg2d: Sum(rhs) =           3.33066907387547E-16
 CG2D iters, err =      0          1.08944742488836E-02
 CG2D iters, err =     29          3.50371470247662E-15
 cg2d: Sum(rhs) =           7.77156117237610E-16
 CG2D iters, err =      0          1.45774269571031E-02
 CG2D iters, err =     29          1.08246316649639E-14
 cg2d: Sum(rhs) =          -1.11022302462516E-16
 CG2D iters, err =      0          1.35830865713933E-02
 CG2D iters, err =     29          1.81366248824089E-14
 cg2d: Sum(rhs) =          -2.44249065417534E-15
 CG2D iters, err =      0          1.22741357578999E-02
 CG2D iters, err =     29          2.42195428947453E-14
 cg2d: Sum(rhs) =          -2.55351295663786E-15
 CG2D iters, err =      0          1.24893158536218E-02
 CG2D iters, err =     29          2.88669592504228E-14
 cg2d: Sum(rhs) =          -2.10942374678780E-15
 CG2D iters, err =      0          1.26834064137076E-02
 CG2D iters, err =     29          3.33636633983814E-14
 cg2d: Sum(rhs) =          -1.33226762955019E-15
 CG2D iters, err =      0          1.24762399600710E-02
 CG2D iters, err =     29          3.77610116308971E-14
 cg2d: Sum(rhs) =          -9.99200722162641E-16
 CG2D iters, err =      0          1.19798823444468E-02
 CG2D iters, err =     29          4.13048879489176E-14
 cg2d: Sum(rhs) =          -6.21724893790088E-15
 CG2D iters, err =      0          1.13411791637378E-02
 CG2D iters, err =     29          4.37453487708087E-14
 cg2d: Sum(rhs) =          -5.66213742558830E-15
 CG2D iters, err =      0          1.07182463460008E-02
 CG2D iters, err =     29          4.52679740184715E-14
 cg2d: Sum(rhs) =          -4.66293670342566E-15
 CG2D iters, err =      0          1.02942891648216E-02
 CG2D iters, err =     29          4.58426224187162E-14
 cg2d: Sum(rhs) =          -2.22044604925031E-15
 CG2D iters, err =      0          1.02225973899248E-02
 CG2D iters, err =     29          4.52401876626693E-14
 cg2d: Sum(rhs) =          -5.77315972805081E-15
 CG2D iters, err =      0          1.05449342994785E-02
 CG2D iters, err =     29          4.33887410903788E-14
 cg2d: Sum(rhs) =          -9.99200722162641E-16
 CG2D iters, err =      0          1.11649273874515E-02
 CG2D iters, err =     29          4.03803993310515E-14
 cg2d: Sum(rhs) =           2.10942374678780E-15
 CG2D iters, err =      0          1.19042893113170E-02
 CG2D iters, err =     29          3.61990805639642E-14
 cg2d: Sum(rhs) =          -1.33226762955019E-15
 CG2D iters, err =      0          1.25799034959852E-02
 CG2D iters, err =     29          2.99098666550031E-14
 cg2d: Sum(rhs) =          -1.88737914186277E-15
 CG2D iters, err =      0          1.30487522966625E-02
 CG2D iters, err =     29          1.46589007096002E-14
 cg2d: Sum(rhs) =          -6.66133814775094E-16
 CG2D iters, err =      0          1.32209921709388E-02
 CG2D iters, err =     29          1.83883843503872E-14
 cg2d: Sum(rhs) =          -5.55111512312578E-16
 CG2D iters, err =      0          1.30576259912276E-02
 CG2D iters, err =     29          1.41563246033852E-14
 cg2d: Sum(rhs) =          -1.66533453693773E-15
 CG2D iters, err =      0          1.25626603399653E-02
 CG2D iters, err =     29          7.52843615446425E-15
 cg2d: Sum(rhs) =          -3.55271367880050E-15
 CG2D iters, err =      0          1.17735447345893E-02
 CG2D iters, err =     29          9.67529866362476E-16
 cg2d: Sum(rhs) =          -4.44089209850063E-15
 CG2D iters, err =      0          1.07515683967363E-02
 CG2D iters, err =     29          5.42072436107925E-15
 cg2d: Sum(rhs) =          -5.77315972805081E-15
 CG2D iters, err =      0          9.57367642562626E-03
 CG2D iters, err =     29          1.12679438928473E-14
 cg2d: Sum(rhs) =          -3.10862446895044E-15
 CG2D iters, err =      0          8.32746595490964E-03
 CG2D iters, err =     29          1.64635888574185E-14
 cg2d: Sum(rhs) =          -1.33226762955019E-15
 CG2D iters, err =      0          7.11129570305024E-03
 CG2D iters, err =     29          2.08511915026307E-14
 cg2d: Sum(rhs) =          -3.55271367880050E-15
 CG2D iters, err =      0          6.04024137919976E-03
 CG2D iters, err =     29          2.43019713858008E-14
 cg2d: Sum(rhs) =          -3.77475828372553E-15
 CG2D iters, err =      0          5.25106453160483E-03
 CG2D iters, err =     29          2.67205331384973E-14
 cg2d: Sum(rhs) =          -3.55271367880050E-15
 CG2D iters, err =      0          4.87811532818170E-03
 CG2D iters, err =     29          2.80428168261574E-14
 cg2d: Sum(rhs) =          -2.44249065417534E-15
 CG2D iters, err =      0          4.97372037425427E-03
 CG2D iters, err =     29          2.82354774102420E-14
 cg2d: Sum(rhs) =          -2.22044604925031E-15
 CG2D iters, err =      0          5.45384456193771E-03
 CG2D iters, err =     29          2.72871089168264E-14
 cg2d: Sum(rhs) =          -3.55271367880050E-15
 CG2D iters, err =      0          6.16564584551833E-03
 CG2D iters, err =     29          2.51305092407350E-14
 cg2d: Sum(rhs) =          -3.21964677141295E-15
 CG2D iters, err =      0          6.97615548450001E-03
 CG2D iters, err =     29          1.70399297539736E-14
 cg2d: Sum(rhs) =          -3.55271367880050E-15
 CG2D iters, err =      0          7.79503478705012E-03
 CG2D iters, err =     29          1.80899154949000E-14
 cg2d: Sum(rhs) =          -3.10862446895044E-15
 CG2D iters, err =      0          8.56225148118290E-03
 CG2D iters, err =     29          1.40647399133037E-14
 cg2d: Sum(rhs) =          -7.77156117237610E-15
 CG2D iters, err =      0          9.23313535822563E-03
 CG2D iters, err =     29          8.95940575514622E-15
 cg2d: Sum(rhs) =          -3.10862446895044E-15
 CG2D iters, err =      0          9.76880984591921E-03
 CG2D iters, err =     29          3.42862383514485E-15
 cg2d: Sum(rhs) =          -3.77475828372553E-15
 CG2D iters, err =      0          1.01321133543576E-02
 CG2D iters, err =     29          2.35004991109581E-15
 cg2d: Sum(rhs) =          -5.32907051820075E-15
 CG2D iters, err =      0          1.02882388392497E-02
 CG2D iters, err =     29          8.07244520083939E-15
 cg2d: Sum(rhs) =          -8.10462807976364E-15
 CG2D iters, err =      0          1.02093165322481E-02
 CG2D iters, err =     29          1.36558875041789E-14
 cg2d: Sum(rhs) =          -3.77475828372553E-15
 CG2D iters, err =      0          9.88207978769441E-03
 CG2D iters, err =     29          1.88398633579434E-14
 cg2d: Sum(rhs) =          -4.44089209850063E-15
 CG2D iters, err =      0          9.31787681259069E-03
 CG2D iters, err =     29          2.34648387086325E-14
 cg2d: Sum(rhs) =          -4.55191440096314E-15
 CG2D iters, err =      0          8.56483268394501E-03
 CG2D iters, err =     29          2.73717459699845E-14
 cg2d: Sum(rhs) =          -7.54951656745106E-15
 CG2D iters, err =      0          7.72229600456838E-03
 CG2D iters, err =     29          3.04268424709664E-14
 cg2d: Sum(rhs) =          -5.55111512312578E-15
 CG2D iters, err =      0          6.95395206330763E-03
 CG2D iters, err =     29          3.25268657553687E-14
 cg2d: Sum(rhs) =          -6.88338275267597E-15
 CG2D iters, err =      0          6.47701328659466E-03
 CG2D iters, err =     29          3.36031393022031E-14
 cg2d: Sum(rhs) =          -7.99360577730113E-15
 CG2D iters, err =      0          6.47689532623119E-03
 CG2D iters, err =     29          3.36223998297126E-14
 cg2d: Sum(rhs) =          -5.55111512312578E-15
 CG2D iters, err =      0          6.96829051195673E-03
 CG2D iters, err =     29          3.25858345928784E-14
 cg2d: Sum(rhs) =          -1.33226762955019E-15
 CG2D iters, err =      0          7.78010945852924E-03
 CG2D iters, err =     29          3.05209769895269E-14
 cg2d: Sum(rhs) =          -5.77315972805081E-15
 CG2D iters, err =      0          8.68537978162302E-03
 CG2D iters, err =     29          2.74409494882647E-14
 cg2d: Sum(rhs) =          -5.88418203051333E-15
 CG2D iters, err =      0          9.49802797598436E-03
 CG2D iters, err =     29          2.28122882248305E-14
 cg2d: Sum(rhs) =          -4.66293670342566E-15
 CG2D iters, err =      0          1.00935599329827E-02
 CG2D iters, err =     29          1.70853422974367E-14
 cg2d: Sum(rhs) =          -5.77315972805081E-15
 CG2D iters, err =      0          1.04016361164130E-02
 CG2D iters, err =     29          1.43957850348490E-14
 cg2d: Sum(rhs) =          -4.88498130835069E-15
 CG2D iters, err =      0          1.03958262477677E-02
 CG2D iters, err =     29          9.31591160273600E-15
 cg2d: Sum(rhs) =          -9.99200722162641E-16
 CG2D iters, err =      0          1.00849061586550E-02
 CG2D iters, err =     29          3.83591658433877E-15
 cg2d: Sum(rhs) =          -5.32907051820075E-15
 CG2D iters, err =      0          9.50526022499375E-03
 CG2D iters, err =     29          1.66956452758286E-15
 cg2d: Sum(rhs) =          -3.99680288865056E-15
 CG2D iters, err =      0          8.71419499704372E-03
 CG2D iters, err =     29          6.91986516794275E-15
 cg2d: Sum(rhs) =          -4.88498130835069E-15
 CG2D iters, err =      0          7.78487410498627E-03
 CG2D iters, err =     29          1.18258381261932E-14
 cg2d: Sum(rhs) =          -3.33066907387547E-15
 CG2D iters, err =      0          6.80422750306139E-03
 CG2D iters, err =     29          1.61888528940764E-14
 cg2d: Sum(rhs) =          -3.10862446895044E-15
 CG2D iters, err =      0          5.87494209772920E-03
 CG2D iters, err =     29          1.98781518519911E-14
 cg2d: Sum(rhs) =          -5.10702591327572E-15
 CG2D iters, err =      0          5.11890535349384E-03
 CG2D iters, err =     29          2.27800553981975E-14
 cg2d: Sum(rhs) =          -5.32907051820075E-15
 CG2D iters, err =      0          4.66644106035677E-03
 CG2D iters, err =     29          2.48083558153282E-14
 cg2d: Sum(rhs) =          -1.55431223447522E-15
 CG2D iters, err =      0          4.60433362944191E-03
 CG2D iters, err =     29          2.59052153777420E-14
 cg2d: Sum(rhs) =          -4.44089209850063E-15
 CG2D iters, err =      0          4.90993456996448E-03
 CG2D iters, err =     29          2.60389586321198E-14
 cg2d: Sum(rhs) =          -5.44009282066327E-15
 CG2D iters, err =      0          5.46793656413452E-03
 CG2D iters, err =     29          2.51899190607300E-14
 cg2d: Sum(rhs) =          -4.88498130835069E-15
 CG2D iters, err =      0          6.15040293237570E-03
 CG2D iters, err =     29          2.32128004409886E-14
 cg2d: Sum(rhs) =          -5.32907051820075E-15
 CG2D iters, err =      0          6.86083903560041E-03
 CG2D iters, err =     29          1.80141168224254E-16
 cg2d: Sum(rhs) =          -3.21964677141295E-15
 CG2D iters, err =      0          7.53475309655231E-03
 CG2D iters, err =     29          1.02490438219714E-14
 cg2d: Sum(rhs) =          -3.99680288865056E-15
 CG2D iters, err =      0          8.12822703664401E-03
 CG2D iters, err =     29          1.38467851751432E-14
 cg2d: Sum(rhs) =          -5.55111512312578E-15
 CG2D iters, err =      0          8.60825368272151E-03
 CG2D iters, err =     29          9.44348719901890E-15
 cg2d: Sum(rhs) =          -7.10542735760100E-15
 CG2D iters, err =      0          8.94685555594081E-03
 CG2D iters, err =     29          4.66858626368184E-15
 cg2d: Sum(rhs) =          -6.21724893790088E-15
 CG2D iters, err =      0          9.11860955601967E-03
 CG2D iters, err =     29          4.50245647428003E-16
 cg2d: Sum(rhs) =          -8.43769498715119E-15
 CG2D iters, err =      0          9.10121214605709E-03
 CG2D iters, err =     29          5.29946041112060E-15
 cg2d: Sum(rhs) =          -7.66053886991358E-15
 CG2D iters, err =      0          8.87879409461655E-03
 CG2D iters, err =     29          1.01425332003293E-14
 cg2d: Sum(rhs) =          -6.32827124036339E-15
 CG2D iters, err =      0          8.44764785668939E-03
 CG2D iters, err =     29          1.46583514612948E-14
 cg2d: Sum(rhs) =          -5.55111512312578E-15
 CG2D iters, err =      0          7.82417432966049E-03
 CG2D iters, err =     29          1.87032426166588E-14
 cg2d: Sum(rhs) =          -7.54951656745106E-15
 CG2D iters, err =      0          7.05545792402025E-03
 CG2D iters, err =     29          2.21416607450450E-14
 cg2d: Sum(rhs) =          -6.43929354282591E-15
 CG2D iters, err =      0          6.23352973715296E-03
 CG2D iters, err =     29          2.48596452236209E-14
 cg2d: Sum(rhs) =          -7.10542735760100E-15
 CG2D iters, err =      0          5.51102323189200E-03
 CG2D iters, err =     29          2.67685901052182E-14
 cg2d: Sum(rhs) =          -6.21724893790088E-15
 CG2D iters, err =      0          5.09377682569128E-03
 CG2D iters, err =     29          2.78075291825756E-14
 cg2d: Sum(rhs) =          -9.43689570931383E-15
 CG2D iters, err =      0          5.14860851088343E-03
 CG2D iters, err =     29          2.79444383918046E-14
 cg2d: Sum(rhs) =          -6.66133814775094E-15
 CG2D iters, err =      0          5.65811575324657E-03
 CG2D iters, err =     29          2.71746369607297E-14
 cg2d: Sum(rhs) =          -6.21724893790088E-15
 CG2D iters, err =      0          6.43488398502820E-03
 CG2D iters, err =     29          2.55131425320881E-14
 cg2d: Sum(rhs) =          -5.32907051820075E-15
 CG2D iters, err =      0          7.26774056396943E-03
 CG2D iters, err =     29          2.29459030377228E-14
 cg2d: Sum(rhs) =          -5.99520433297585E-15
 CG2D iters, err =      0          7.99873335471845E-03
 CG2D iters, err =     29          1.83553778173688E-14
 cg2d: Sum(rhs) =          -9.32587340685131E-15
 CG2D iters, err =      0          8.52731352712342E-03
 CG2D iters, err =     29          1.56885405967328E-14
 cg2d: Sum(rhs) =          -7.54951656745106E-15
 CG2D iters, err =      0          8.79854123611992E-03
 CG2D iters, err =     29          1.20750990585941E-14
 cg2d: Sum(rhs) =          -5.99520433297585E-15
 CG2D iters, err =      0          8.79341932583189E-03
 CG2D iters, err =     29          7.60561101141342E-15
 cg2d: Sum(rhs) =          -5.77315972805081E-15
 CG2D iters, err =      0          8.52194388377017E-03
 CG2D iters, err =     29          2.89503156892376E-15
 cg2d: Sum(rhs) =          -5.32907051820075E-15
 CG2D iters, err =      0          8.01746044028509E-03
 CG2D iters, err =     29          1.85711558641461E-15
 cg2d: Sum(rhs) =          -9.32587340685131E-15
 CG2D iters, err =      0          7.33192717301699E-03
 CG2D iters, err =     29          6.41454473223909E-15
 cg2d: Sum(rhs) =          -5.77315972805081E-15
 CG2D iters, err =      0          6.53270282807077E-03
 CG2D iters, err =     29          1.06788198030133E-14
 cg2d: Sum(rhs) =          -9.10382880192628E-15
 CG2D iters, err =      0          5.70205190772910E-03
 CG2D iters, err =     29          1.44930978132240E-14
 cg2d: Sum(rhs) =          -8.21565038222616E-15
 CG2D iters, err =      0          4.93982335285715E-03
 CG2D iters, err =     29          1.77332909774000E-14
 cg2d: Sum(rhs) =          -7.54951656745106E-15
 CG2D iters, err =      0          4.36411550806136E-03
 CG2D iters, err =     29          2.02987103759549E-14
 cg2d: Sum(rhs) =          -4.66293670342566E-15
 CG2D iters, err =      0          4.08988101372329E-03
 CG2D iters, err =     29          2.21114046180576E-14
 cg2d: Sum(rhs) =          -6.21724893790088E-15
 CG2D iters, err =      0          4.16817160703201E-03
 CG2D iters, err =     29          2.31178822137524E-14
 cg2d: Sum(rhs) =          -6.21724893790088E-15
 CG2D iters, err =      0          4.54349352238317E-03
 CG2D iters, err =     29          2.32872741252668E-14
 cg2d: Sum(rhs) =          -6.77236045021345E-15
 CG2D iters, err =      0          5.10007943121446E-03
 CG2D iters, err =     29          2.25956486174481E-14
 cg2d: Sum(rhs) =          -7.54951656745106E-15
 CG2D iters, err =      0          5.73051659638081E-03
 CG2D iters, err =     29          2.08517708043582E-14
 cg2d: Sum(rhs) =          -8.21565038222616E-15
 CG2D iters, err =      0          6.35874112007978E-03
 CG2D iters, err =     29          1.11840187144397E-14
 cg2d: Sum(rhs) =          -3.10862446895044E-15
 CG2D iters, err =      0          6.93432846809143E-03
 CG2D iters, err =     29          1.25268804827351E-14
 cg2d: Sum(rhs) =          -7.32747196252603E-15
 CG2D iters, err =      0          7.42253777734179E-03
 CG2D iters, err =     29          1.29065687900444E-14
 cg2d: Sum(rhs) =          -9.32587340685131E-15
 CG2D iters, err =      0          7.79717721682608E-03
 CG2D iters, err =     29          9.09310223809085E-15
 cg2d: Sum(rhs) =          -4.99600361081320E-15
 CG2D iters, err =      0          8.03656054874423E-03
 CG2D iters, err =     29          4.94615417986763E-15
 cg2d: Sum(rhs) =          -6.66133814775094E-15
 CG2D iters, err =      0          8.12196644048301E-03
 CG2D iters, err =     29          6.87585863826094E-16
 cg2d: Sum(rhs) =          -6.21724893790088E-15
 CG2D iters, err =      0          8.03826431397450E-03
 CG2D iters, err =     29          3.73115906954379E-15
 cg2d: Sum(rhs) =          -7.21644966006352E-15
 CG2D iters, err =      0          7.77652470956582E-03
 CG2D iters, err =     29          8.01073842421680E-15
 cg2d: Sum(rhs) =          -7.54951656745106E-15
 CG2D iters, err =      0          7.33847621843590E-03
 CG2D iters, err =     29          1.19917254068804E-14
 cg2d: Sum(rhs) =          -2.22044604925031E-15
 CG2D iters, err =      0          6.74285333322223E-03
 CG2D iters, err =     29          1.55770760365851E-14
 cg2d: Sum(rhs) =          -5.32907051820075E-15
 CG2D iters, err =      0          6.03422042286581E-03
 CG2D iters, err =     29          1.86457180239533E-14
 cg2d: Sum(rhs) =          -4.44089209850063E-15
 CG2D iters, err =      0          5.29538134031653E-03
 CG2D iters, err =     29          2.10949429157669E-14
 cg2d: Sum(rhs) =          -4.44089209850063E-15
 CG2D iters, err =      0          4.66115206977962E-03
 CG2D iters, err =     29          2.28435725610300E-14
 cg2d: Sum(rhs) =          -3.99680288865056E-15
 CG2D iters, err =      0          4.31018197687425E-03
 CG2D iters, err =     29          2.38341357026526E-14
 cg2d: Sum(rhs) =          -5.32907051820075E-15
 CG2D iters, err =      0          4.37897442328324E-03
 CG2D iters, err =     29          2.40337914365727E-14
 cg2d: Sum(rhs) =          -5.88418203051333E-15
 CG2D iters, err =      0          4.83730813281167E-03
 CG2D iters, err =     29          2.34323729780438E-14
 cg2d: Sum(rhs) =          -3.55271367880050E-15
 CG2D iters, err =      0          5.51493605326995E-03
 CG2D iters, err =     29          2.20292360961430E-14
 cg2d: Sum(rhs) =          -5.32907051820075E-15
 CG2D iters, err =      0          6.23108535976436E-03
 CG2D iters, err =     29          1.97132857086174E-14
 cg2d: Sum(rhs) =          -6.21724893790088E-15
 CG2D iters, err =      0          6.85403857973793E-03
 CG2D iters, err =     29          4.01687267494103E-15
 cg2d: Sum(rhs) =          -4.21884749357559E-15
 CG2D iters, err =      0          7.30093641014219E-03
 CG2D iters, err =     29          1.39344443354566E-14
 cg2d: Sum(rhs) =          -3.44169137633799E-15
 CG2D iters, err =      0          7.52685537570876E-03
 CG2D iters, err =     29          9.53533504942485E-15
 cg2d: Sum(rhs) =          -4.88498130835069E-15
 CG2D iters, err =      0          7.51661156019749E-03
 CG2D iters, err =     29          6.58038209138972E-15
 cg2d: Sum(rhs) =          -3.10862446895044E-15
 CG2D iters, err =      0          7.27909014509695E-03
 CG2D iters, err =     29          2.46430777372035E-15
 cg2d: Sum(rhs) =          -3.77475828372553E-15
 CG2D iters, err =      0          6.84276651423394E-03
 CG2D iters, err =     29          1.70738773326668E-15
 cg2d: Sum(rhs) =          -4.44089209850063E-15
 CG2D iters, err =      0          6.25207903578387E-03
 CG2D iters, err =     29          5.70949534831720E-15
 cg2d: Sum(rhs) =          -6.10622663543836E-15
 CG2D iters, err =      0          5.56522048070409E-03
 CG2D iters, err =     29          9.46616744220669E-15
 cg2d: Sum(rhs) =          -5.55111512312578E-15
 CG2D iters, err =      0          4.85443180814369E-03
 CG2D iters, err =     29          1.28355556927539E-14
 cg2d: Sum(rhs) =          -3.55271367880050E-15
 CG2D iters, err =      0          4.20911015166465E-03
 CG2D iters, err =     29          1.57096626821332E-14
 cg2d: Sum(rhs) =          -6.21724893790088E-15
 CG2D iters, err =      0          3.73624183805582E-03
 CG2D iters, err =     29          1.79974170978038E-14
 cg2d: Sum(rhs) =          -4.88498130835069E-15
 CG2D iters, err =      0          3.53807166681491E-03
 CG2D iters, err =     29          1.96282145648505E-14
 cg2d: Sum(rhs) =          -2.66453525910038E-15
 CG2D iters, err =      0          3.65353870915408E-03
 CG2D iters, err =     29          2.05525394392330E-14
 cg2d: Sum(rhs) =          -4.66293670342566E-15
 CG2D iters, err =      0          4.02488898931493E-03
 CG2D iters, err =     29          2.07380942831648E-14
 cg2d: Sum(rhs) =          -4.66293670342566E-15
 CG2D iters, err =      0          4.54673818197174E-03
 CG2D iters, err =     29          2.01441425082367E-14
 cg2d: Sum(rhs) =          -5.55111512312578E-15
 CG2D iters, err =      0          5.12541903061788E-03
 CG2D iters, err =     29          1.82531862327751E-14
 cg2d: Sum(rhs) =          -5.32907051820075E-15
 CG2D iters, err =      0          5.69513081915567E-03
 CG2D iters, err =     29          1.60058436204667E-14
 cg2d: Sum(rhs) =          -5.55111512312578E-15
 CG2D iters, err =      0          6.21153406037202E-03
 CG2D iters, err =     29          1.45840883485601E-14
 cg2d: Sum(rhs) =          -7.10542735760100E-15
 CG2D iters, err =      0          6.64328018010574E-03
 CG2D iters, err =     29          1.18009832580532E-14
 cg2d: Sum(rhs) =          -4.44089209850063E-15
 CG2D iters, err =      0          6.96642891256279E-03
 CG2D iters, err =     29          8.45998278224390E-15
 cg2d: Sum(rhs) =          -3.44169137633799E-15
 CG2D iters, err =      0          7.16154253231739E-03
 CG2D iters, err =     29          4.82318620469514E-15
 cg2d: Sum(rhs) =          -3.99680288865056E-15
 CG2D iters, err =      0          7.21276853833118E-03
 CG2D iters, err =     29          1.05760151472828E-15
 cg2d: Sum(rhs) =          -3.99680288865056E-15
 CG2D iters, err =      0          7.10852211894194E-03
 CG2D iters, err =     29          2.85496050671517E-15
 cg2d: Sum(rhs) =          -2.22044604925031E-15
 CG2D iters, err =      0          6.84358731551202E-03
 CG2D iters, err =     29          6.59126034268808E-15
 cg2d: Sum(rhs) =          -1.55431223447522E-15
 CG2D iters, err =      0          6.42257945739895E-03
 CG2D iters, err =     29          1.01102295909314E-14
 cg2d: Sum(rhs) =           1.44328993201270E-15
 CG2D iters, err =      0          5.86494510210022E-03
 CG2D iters, err =     29          1.32863690405881E-14
 cg2d: Sum(rhs) =          -1.11022302462516E-15
 CG2D iters, err =      0          5.21221589585154E-03
 CG2D iters, err =     29          1.60119143131516E-14
 cg2d: Sum(rhs) =          -2.22044604925031E-15
 CG2D iters, err =      0          4.53880977407068E-03
 CG2D iters, err =     29          1.81950872547274E-14
 cg2d: Sum(rhs) =          -2.33146835171283E-15
 CG2D iters, err =      0          3.96487024378552E-03
 CG2D iters, err =     29          1.97632023709080E-14
 cg2d: Sum(rhs) =          -6.66133814775094E-16
 CG2D iters, err =      0          3.64996552708576E-03
 CG2D iters, err =     29          2.06640456447943E-14
 cg2d: Sum(rhs) =           0.00000000000000E+00
 CG2D iters, err =      0          3.71414441712602E-03
 CG2D iters, err =     29          2.08668609548906E-14
 cg2d: Sum(rhs) =          -8.88178419700125E-16
 CG2D iters, err =      0          4.12387610445612E-03
 CG2D iters, err =     29          2.03575649471241E-14
 cg2d: Sum(rhs) =          -3.33066907387547E-16
 CG2D iters, err =      0          4.72291337900953E-03
 CG2D iters, err =     29          1.91093481396991E-14
 cg2d: Sum(rhs) =           1.55431223447522E-15
 CG2D iters, err =      0          5.35201730758035E-03
 CG2D iters, err =     29          1.66135939089810E-14
 cg2d: Sum(rhs) =           1.77635683940025E-15
 CG2D iters, err =      0          5.89808565658032E-03
 CG2D iters, err =     29          1.36698737854977E-14
 cg2d: Sum(rhs) =           1.11022302462516E-16
 CG2D iters, err =      0          6.29076430681340E-03
 CG2D iters, err =     29          6.40918935043525E-15
 cg2d: Sum(rhs) =           1.88737914186277E-15
 CG2D iters, err =      0          6.49178306913830E-03
 CG2D iters, err =     29          9.16923556872246E-15
 cg2d: Sum(rhs) =           6.66133814775094E-16
 CG2D iters, err =      0          6.48764928670477E-03
 CG2D iters, err =     29          5.72008880186564E-15
 cg2d: Sum(rhs) =           5.55111512312578E-16
 CG2D iters, err =      0          6.28490551575917E-03
 CG2D iters, err =     29          2.12059091916581E-15
 cg2d: Sum(rhs) =           2.44249065417534E-15
 CG2D iters, err =      0          5.90660875470634E-03
 CG2D iters, err =     29          1.53834374615998E-15
 cg2d: Sum(rhs) =          -5.55111512312578E-16
 CG2D iters, err =      0          5.38969943256370E-03
 CG2D iters, err =     29          5.04704495951507E-15
 cg2d: Sum(rhs) =           8.88178419700125E-16
 CG2D iters, err =      0          4.78380593449880E-03
 CG2D iters, err =     29          8.34669078793704E-15
 cg2d: Sum(rhs) =           8.88178419700125E-16
 CG2D iters, err =      0          4.15263958803551E-03
 CG2D iters, err =     29          1.13119480824828E-14
 cg2d: Sum(rhs) =           2.55351295663786E-15
 CG2D iters, err =      0          3.57863006853596E-03
 CG2D iters, err =     29          1.38471977182738E-14
 cg2d: Sum(rhs) =           2.22044604925031E-15
 CG2D iters, err =      0          3.16543094852637E-03
 CG2D iters, err =     29          1.58721297835246E-14
 cg2d: Sum(rhs) =           1.11022302462516E-15
 CG2D iters, err =      0          3.01519892232418E-03
 CG2D iters, err =     29          1.73232190977653E-14
 cg2d: Sum(rhs) =           1.11022302462516E-15
 CG2D iters, err =      0          3.16358801859643E-03
 CG2D iters, err =     29          1.81550061922135E-14
 cg2d: Sum(rhs) =           1.22124532708767E-15
 CG2D iters, err =      0          3.54639268708936E-03
 CG2D iters, err =     29          1.83343346579209E-14
 cg2d: Sum(rhs) =           1.11022302462516E-16
 CG2D iters, err =      0          4.05779696888040E-03
 CG2D iters, err =     29          1.77939796670417E-14
 cg2d: Sum(rhs) =           1.55431223447522E-15
 CG2D iters, err =      0          4.60937450023385E-03
 CG2D iters, err =     29          1.48065566357406E-14
 cg2d: Sum(rhs) =           1.88737914186277E-15
 CG2D iters, err =      0          5.14110769367611E-03
 CG2D iters, err =     29          1.48497351738676E-14
 cg2d: Sum(rhs) =           1.44328993201270E-15
 CG2D iters, err =      0          5.61314109606575E-03
 CG2D iters, err =     29          1.31189245536076E-14
 cg2d: Sum(rhs) =           7.77156117237610E-16
 CG2D iters, err =      0          5.99768242136192E-03
 CG2D iters, err =     29          1.06342299528864E-14
 cg2d: Sum(rhs) =          -1.99840144432528E-15
 CG2D iters, err =      0          6.27419926531965E-03
 CG2D iters, err =     29          7.72228357305940E-15
 cg2d: Sum(rhs) =          -1.66533453693773E-15
 CG2D iters, err =      0          6.42707381009683E-03
 CG2D iters, err =     29          4.54911914677491E-15
 cg2d: Sum(rhs) =           2.10942374678780E-15
 CG2D iters, err =      0          6.44487640344668E-03
 CG2D iters, err =     29          1.25133987578176E-15
 cg2d: Sum(rhs) =          -2.22044604925031E-16
 CG2D iters, err =      0          6.32084345505749E-03
 CG2D iters, err =     29          2.17350559834959E-15
 cg2d: Sum(rhs) =           1.44328993201270E-15
 CG2D iters, err =      0          6.05440929613214E-03
 CG2D iters, err =     29          5.39335541405313E-15
 cg2d: Sum(rhs) =          -1.55431223447522E-15
 CG2D iters, err =      0          5.65380804657660E-03
 CG2D iters, err =     29          8.53254832522272E-15
 cg2d: Sum(rhs) =          -4.44089209850063E-16
 CG2D iters, err =      0          5.13999574418333E-03
 CG2D iters, err =     29          1.13296143003968E-14
 cg2d: Sum(rhs) =           8.88178419700125E-16
 CG2D iters, err =      0          4.55258877331048E-03
 CG2D iters, err =     29          1.37384873667193E-14
 cg2d: Sum(rhs) =           1.22124532708767E-15
 CG2D iters, err =      0          3.95884562947181E-03
 CG2D iters, err =     29          1.56784093038677E-14
 cg2d: Sum(rhs) =           6.66133814775094E-16
 CG2D iters, err =      0          3.46371831076626E-03
 CG2D iters, err =     29          1.70846542757920E-14
 cg2d: Sum(rhs) =          -1.11022302462516E-15
 CG2D iters, err =      0          3.20144433665040E-03
 CG2D iters, err =     29          1.79097851710099E-14
 cg2d: Sum(rhs) =          -2.44249065417534E-15
 CG2D iters, err =      0          3.26578363214455E-03
 CG2D iters, err =     29          1.81238412931313E-14
 cg2d: Sum(rhs) =          -2.22044604925031E-16
 CG2D iters, err =      0          3.61998796624995E-03
 CG2D iters, err =     29          1.77066280403889E-14
 cg2d: Sum(rhs) =          -6.66133814775094E-16
 CG2D iters, err =      0          4.12998934639598E-03
 CG2D iters, err =     29          1.65891057753108E-14
 cg2d: Sum(rhs) =           6.66133814775094E-16
 CG2D iters, err =      0          4.66235564975484E-03
 CG2D iters, err =     29          1.26221672910627E-14
 cg2d: Sum(rhs) =           4.44089209850063E-16
 CG2D iters, err =      0          5.12253140430956E-03
 CG2D iters, err =     29          1.28657365573933E-14
 cg2d: Sum(rhs) =          -4.44089209850063E-16
 CG2D iters, err =      0          5.45150717072866E-03
 CG2D iters, err =     29          1.07349772944840E-14
 cg2d: Sum(rhs) =          -6.66133814775094E-16
 CG2D iters, err =      0          5.61693899217697E-03
 CG2D iters, err =     29          8.10127658558332E-15
 cg2d: Sum(rhs) =          -5.55111512312578E-16
 CG2D iters, err =      0          5.60708925298931E-03
 CG2D iters, err =     29          5.09398163209818E-15
 cg2d: Sum(rhs) =           6.66133814775094E-16
 CG2D iters, err =      0          5.42694518724309E-03
 CG2D iters, err =     29          1.95003998822064E-15
 cg2d: Sum(rhs) =          -3.44169137633799E-15
 CG2D iters, err =      0          5.09543252972795E-03
 CG2D iters, err =     29          1.25909642621095E-15
 cg2d: Sum(rhs) =          -6.66133814775094E-16
 CG2D iters, err =      0          4.64347722791140E-03
 CG2D iters, err =     29          4.33809305218734E-15
 cg2d: Sum(rhs) =          -8.88178419700125E-16
 CG2D iters, err =      0          4.11343807283436E-03
 CG2D iters, err =     29          7.24495771778083E-15
 cg2d: Sum(rhs) =          -1.11022302462516E-15
 CG2D iters, err =      0          3.56103743188872E-03
 CG2D iters, err =     29          9.86638632389241E-15
 cg2d: Sum(rhs) =          -2.66453525910038E-15
 CG2D iters, err =      0          3.06053355480791E-03
 CG2D iters, err =     29          1.21173177185462E-14
 cg2d: Sum(rhs) =           2.22044604925031E-16
 CG2D iters, err =      0          2.70788342849746E-03
 CG2D iters, err =     29          1.39256766152767E-14
 cg2d: Sum(rhs) =          -1.55431223447522E-15
 CG2D iters, err =      0          2.59806782823164E-03
 CG2D iters, err =     29          1.52341028527129E-14
 cg2d: Sum(rhs) =          -2.22044604925031E-15
 CG2D iters, err =      0          2.76014540618541E-03
 CG2D iters, err =     29          1.59997529128943E-14
 cg2d: Sum(rhs) =           1.33226762955019E-15
 CG2D iters, err =      0          3.12897428326978E-03
 CG2D iters, err =     29          1.61857472749323E-14
 cg2d: Sum(rhs) =           1.11022302462516E-16
 CG2D iters, err =      0          3.60588143573621E-03
 CG2D iters, err =     29          1.56795042105011E-14
 cg2d: Sum(rhs) =          -1.33226762955019E-15
 CG2D iters, err =      0          4.11167294885075E-03
 CG2D iters, err =     29          6.51320109744736E-15
 cg2d: Sum(rhs) =           0.00000000000000E+00
 CG2D iters, err =      0          4.59345409068722E-03
 CG2D iters, err =     29          1.33044975116836E-14
 cg2d: Sum(rhs) =          -2.66453525910038E-15
 CG2D iters, err =      0          5.01616435494429E-03
 CG2D iters, err =     29          1.11014180229957E-14
 cg2d: Sum(rhs) =          -1.99840144432528E-15
 CG2D iters, err =      0          5.35540424001907E-03
 CG2D iters, err =     29          9.60826885261396E-15
 cg2d: Sum(rhs) =          -2.22044604925031E-15
 CG2D iters, err =      0          5.59343474790704E-03
 CG2D iters, err =     29          7.06790196731933E-15
 cg2d: Sum(rhs) =          -3.10862446895044E-15
 CG2D iters, err =      0          5.71731071293502E-03
 CG2D iters, err =     29          4.29237198625163E-15
 cg2d: Sum(rhs) =          -1.55431223447522E-15
 CG2D iters, err =      0          5.71832658562139E-03
 CG2D iters, err =     29          1.39516304780078E-15
 cg2d: Sum(rhs) =          -5.10702591327572E-15
 CG2D iters, err =      0          5.59238439633776E-03
 CG2D iters, err =     29          1.61790131638936E-15
 cg2d: Sum(rhs) =          -3.10862446895044E-15
 CG2D iters, err =      0          5.34115361428911E-03
 CG2D iters, err =     29          4.49333284694800E-15
 cg2d: Sum(rhs) =          -2.44249065417534E-15
 CG2D iters, err =      0          4.97406150058019E-03
 CG2D iters, err =     29          7.22439157329434E-15
 cg2d: Sum(rhs) =          -5.55111512312578E-15
 CG2D iters, err =      0          4.51136620445483E-03
 CG2D iters, err =     29          9.70386216345692E-15
 cg2d: Sum(rhs) =          -5.99520433297585E-15
 CG2D iters, err =      0          3.98892785688013E-03
 CG2D iters, err =     29          1.18474645241096E-14
[...]
 CG2D iters, err =      0          5.76346280849583E-04
 CG2D iters, err =     29          2.01945607138596E-16
 cg2d: Sum(rhs) =          -7.91589016557737E-14
 CG2D iters, err =      0          5.76345125323676E-04
 CG2D iters, err =     29          2.02072713396224E-16
 cg2d: Sum(rhs) =          -8.03801469828613E-14
 CG2D iters, err =      0          5.76344043007817E-04
 CG2D iters, err =     29          2.01926734140029E-16
 cg2d: Sum(rhs) =          -7.81597009336110E-14
 CG2D iters, err =      0          5.76343050052700E-04
 CG2D iters, err =     29          2.01931006650970E-16
 cg2d: Sum(rhs) =          -7.78266340262235E-14
 CG2D iters, err =      0          5.76342159284064E-04
 CG2D iters, err =     29          2.01961962463164E-16
 cg2d: Sum(rhs) =          -8.28226376370367E-14
 CG2D iters, err =      0          5.76341380493795E-04
 CG2D iters, err =     29          2.02100145191229E-16
 cg2d: Sum(rhs) =          -8.32667268468867E-14
 CG2D iters, err =      0          5.76340720016652E-04
 CG2D iters, err =     29          2.01950472229446E-16
 cg2d: Sum(rhs) =          -8.12683254025615E-14
 CG2D iters, err =      0          5.76340179294119E-04
 CG2D iters, err =     29          2.01944144662466E-16
 cg2d: Sum(rhs) =          -8.03801469828613E-14
 CG2D iters, err =      0          5.76339755133036E-04
 CG2D iters, err =     29          2.02007609567171E-16
 cg2d: Sum(rhs) =          -7.94919685631612E-14
 CG2D iters, err =      0          5.76339442274070E-04
 CG2D iters, err =     29          2.02055741155097E-16
 cg2d: Sum(rhs) =          -8.03801469828613E-14
 CG2D iters, err =      0          5.76339229923437E-04
 CG2D iters, err =     29          2.01997614739413E-16
 cg2d: Sum(rhs) =          -8.17124146124115E-14
 CG2D iters, err =      0          5.76339105210024E-04
 CG2D iters, err =     29          2.01908678523135E-16
 cg2d: Sum(rhs) =          -8.08242361927114E-14
 CG2D iters, err =      0          5.76339050937875E-04
 CG2D iters, err =     29          2.02179156476153E-16
 cg2d: Sum(rhs) =          -8.34887714518118E-14
 CG2D iters, err =      0          5.76339048406309E-04
 CG2D iters, err =     29          2.02041863154425E-16
 cg2d: Sum(rhs) =          -8.17124146124115E-14
 CG2D iters, err =      0          5.76339078154037E-04
 CG2D iters, err =     29          2.01900250486668E-16
 cg2d: Sum(rhs) =          -8.08242361927114E-14
 CG2D iters, err =      0          5.76339118356199E-04
 CG2D iters, err =     29          2.02082244408640E-16
 cg2d: Sum(rhs) =          -7.99360577730113E-14
 CG2D iters, err =      0          5.76339147448302E-04
 CG2D iters, err =     29          2.02024667992654E-16
 cg2d: Sum(rhs) =          -8.12683254025615E-14
 CG2D iters, err =      0          5.76339143987608E-04
 CG2D iters, err =     29          2.01920747529312E-16
 cg2d: Sum(rhs) =          -8.27116153345742E-14
 CG2D iters, err =      0          5.76339089095733E-04
 CG2D iters, err =     29          2.02069375100367E-16
 cg2d: Sum(rhs) =          -8.34887714518118E-14
 CG2D iters, err =      0          5.76338964075229E-04
 CG2D iters, err =     29          2.02133932659144E-16
 cg2d: Sum(rhs) =          -8.39328606616618E-14
 CG2D iters, err =      0          5.76338754243318E-04
 CG2D iters, err =     29          2.02020585884229E-16
 cg2d: Sum(rhs) =          -8.28226376370367E-14
 CG2D iters, err =      0          5.76338447085293E-04
 CG2D iters, err =     29          2.02031122623248E-16
 cg2d: Sum(rhs) =          -8.37108160567368E-14
 CG2D iters, err =      0          5.76338033252166E-04
 CG2D iters, err =     29          2.02089715573905E-16
 cg2d: Sum(rhs) =          -8.51541059887495E-14
 CG2D iters, err =      0          5.76337508408166E-04
 CG2D iters, err =     29          2.02043691119284E-16
 cg2d: Sum(rhs) =          -8.30446822419617E-14
 CG2D iters, err =      0          5.76336870232120E-04
 CG2D iters, err =     29          2.01994420536127E-16
 cg2d: Sum(rhs) =          -8.26005930321116E-14
 CG2D iters, err =      0          5.76336121594852E-04
 CG2D iters, err =     29          2.02097423310833E-16
 cg2d: Sum(rhs) =          -8.19344592173366E-14
 CG2D iters, err =      0          5.76335268770462E-04
 CG2D iters, err =     29          2.02045725104612E-16
 cg2d: Sum(rhs) =          -8.21565038222616E-14
 CG2D iters, err =      0          5.76334321255081E-04
 CG2D iters, err =     29          2.02016047077602E-16
 cg2d: Sum(rhs) =          -8.04911692853238E-14
 CG2D iters, err =      0          5.76333293137390E-04
 CG2D iters, err =     29          2.02026175386387E-16
001)     22 .......
(PID.TID 0000.0001)     21 .......
(PID.TID 0000.0001)     20 .......
(PID.TID 0000.0001)     19 .......
(PID.TID 0000.0001)     18 .......
(PID.TID 0000.0001)     17 .......
(PID.TID 0000.0001)     16 .......
(PID.TID 0000.0001)     15 .......
(PID.TID 0000.0001)     14 .......
(PID.TID 0000.0001)     13 .......
(PID.TID 0000.0001)     12 .......
(PID.TID 0000.0001)     11 .......
(PID.TID 0000.0001)     10 .......
(PID.TID 0000.0001)      9 .......
(PID.TID 0000.0001)      8 .......
(PID.TID 0000.0001)      7 .......
(PID.TID 0000.0001)      6 .......
(PID.TID 0000.0001)      5 .......
(PID.TID 0000.0001)      4 .......
(PID.TID 0000.0001)      3 .......
(PID.TID 0000.0001)      2 .......
(PID.TID 0000.0001)      1 .......
(PID.TID 0000.0001)      0 .......
(PID.TID 0000.0001)     -1 .......
(PID.TID 0000.0001)     -2 .......
(PID.TID 0000.0001) // =======================================================
(PID.TID 0000.0001) // END OF FIELD                                          =
(PID.TID 0000.0001) // =======================================================
(PID.TID 0000.0001) 
(PID.TID 0000.0001) // =======================================================
(PID.TID 0000.0001) // Field Current uVel   at iteration       4800
(PID.TID 0000.0001) // CMIN =          2.964463167602075E-03
(PID.TID 0000.0001) // CMAX =          2.972024458732284E-02
(PID.TID 0000.0001) // CINT =          9.909548673970653E-04
(PID.TID 0000.0001) // SYMBOLS (CMIN->CMAX): -abcdefghijklmnopqrstuvwxyz+
(PID.TID 0000.0001) //                  0.0: .
(PID.TID 0000.0001) // RANGE I (Lo:Hi:Step):(   1:   1:   1)
(PID.TID 0000.0001) // RANGE J (Lo:Hi:Step):(  32:   1:  -1)
(PID.TID 0000.0001) // RANGE K (Lo:Hi:Step):(   1:   1:   1)
(PID.TID 0000.0001) // =======================================================
(PID.TID 0000.0001) K =   1
(PID.TID 0000.0001) 
(PID.TID 0000.0001) |--J--|1
(PID.TID 0000.0001)     32 .
(PID.TID 0000.0001)     31 -
(PID.TID 0000.0001)     30 b
(PID.TID 0000.0001)     29 e
(PID.TID 0000.0001)     28 h
(PID.TID 0000.0001)     27 k
(PID.TID 0000.0001)     26 n
(PID.TID 0000.0001)     25 q
(PID.TID 0000.0001)     24 s
(PID.TID 0000.0001)     23 u
(PID.TID 0000.0001)     22 w
(PID.TID 0000.0001)     21 x
(PID.TID 0000.0001)     20 y
(PID.TID 0000.0001)     19 z
(PID.TID 0000.0001)     18 +
(PID.TID 0000.0001)     17 +
(PID.TID 0000.0001)     16 +
(PID.TID 0000.0001)     15 +
(PID.TID 0000.0001)     14 +
(PID.TID 0000.0001)     13 z
(PID.TID 0000.0001)     12 y
(PID.TID 0000.0001)     11 x
(PID.TID 0000.0001)     10 w
(PID.TID 0000.0001)      9 u
(PID.TID 0000.0001)      8 s
(PID.TID 0000.0001)      7 q
(PID.TID 0000.0001)      6 n
(PID.TID 0000.0001)      5 k
(PID.TID 0000.0001)      4 h
(PID.TID 0000.0001)      3 e
(PID.TID 0000.0001)      2 b
(PID.TID 0000.0001)      1 -
(PID.TID 0000.0001) // =======================================================
(PID.TID 0000.0001) // END OF FIELD                                          =
(PID.TID 0000.0001) // =======================================================
(PID.TID 0000.0001) 
(PID.TID 0000.0001) // =======================================================
(PID.TID 0000.0001) // Field Current vVel   at iteration       4800
(PID.TID 0000.0001) // CMIN =         -9.235302761546290E-05
(PID.TID 0000.0001) // CMAX =          5.000363709069888E-05
(PID.TID 0000.0001) // CINT =          5.272469063191177E-06
(PID.TID 0000.0001) // SYMBOLS (CMIN->CMAX): -abcdefghijklmnopqrstuvwxyz+
(PID.TID 0000.0001) //                  0.0: .
(PID.TID 0000.0001) // RANGE I (Lo:Hi:Step):(   1:   1:   1)
(PID.TID 0000.0001) // RANGE J (Lo:Hi:Step):(  32:   1:  -1)
(PID.TID 0000.0001) // RANGE K (Lo:Hi:Step):(   1:   1:   1)
(PID.TID 0000.0001) // =======================================================
(PID.TID 0000.0001) K =   1
(PID.TID 0000.0001) 
(PID.TID 0000.0001) |--J--|1
(PID.TID 0000.0001)     32 .
(PID.TID 0000.0001)     31 -
(PID.TID 0000.0001)     30 +
(PID.TID 0000.0001)     29 w
(PID.TID 0000.0001)     28 q
(PID.TID 0000.0001)     27 p
(PID.TID 0000.0001)     26 p
(PID.TID 0000.0001)     25 o
(PID.TID 0000.0001)     24 o
(PID.TID 0000.0001)     23 o
(PID.TID 0000.0001)     22 n
(PID.TID 0000.0001)     21 n
(PID.TID 0000.0001)     20 n
(PID.TID 0000.0001)     19 n
(PID.TID 0000.0001)     18 n
(PID.TID 0000.0001)     17 m
(PID.TID 0000.0001)     16 m
(PID.TID 0000.0001)     15 m
(PID.TID 0000.0001)     14 m
(PID.TID 0000.0001)     13 m
(PID.TID 0000.0001)     12 m
(PID.TID 0000.0001)     11 n
(PID.TID 0000.0001)     10 n
(PID.TID 0000.0001)      9 n
(PID.TID 0000.0001)      8 n
(PID.TID 0000.0001)      7 o
(PID.TID 0000.0001)      6 o
(PID.TID 0000.0001)      5 q
(PID.TID 0000.0001)      4 u
(PID.TID 0000.0001)      3 v
(PID.TID 0000.0001)      2 d
(PID.TID 0000.0001)      1 .
(PID.TID 0000.0001) // =======================================================
(PID.TID 0000.0001) // END OF FIELD                                          =
(PID.TID 0000.0001) // =======================================================
(PID.TID 0000.0001) 
(PID.TID 0000.0001) // =======================================================
(PID.TID 0000.0001) // Field Current theta  at iteration       4800
(PID.TID 0000.0001) // CMIN =          2.005458744122731E+01
(PID.TID 0000.0001) // CMAX =          2.042471052043742E+01
(PID.TID 0000.0001) // CINT =          1.370826219296704E-02
(PID.TID 0000.0001) // SYMBOLS (CMIN->CMAX): -abcdefghijklmnopqrstuvwxyz+
(PID.TID 0000.0001) //                  0.0: .
(PID.TID 0000.0001) // RANGE I (Lo:Hi:Step):(   1:   1:   1)
(PID.TID 0000.0001) // RANGE J (Lo:Hi:Step):(  32:   1:  -1)
(PID.TID 0000.0001) // RANGE K (Lo:Hi:Step):(   1:   1:   1)
(PID.TID 0000.0001) // =======================================================
(PID.TID 0000.0001) K =   1
(PID.TID 0000.0001) 
(PID.TID 0000.0001) |--J--|1
(PID.TID 0000.0001)     32 .
(PID.TID 0000.0001)     31 -
(PID.TID 0000.0001)     30 -
(PID.TID 0000.0001)     29 a
(PID.TID 0000.0001)     28 b
(PID.TID 0000.0001)     27 d
(PID.TID 0000.0001)     26 e
(PID.TID 0000.0001)     25 g
(PID.TID 0000.0001)     24 h
(PID.TID 0000.0001)     23 j
(PID.TID 0000.0001)     22 l
(PID.TID 0000.0001)     21 m
(PID.TID 0000.0001)     20 n
(PID.TID 0000.0001)     19 p
(PID.TID 0000.0001)     18 q
(PID.TID 0000.0001)     17 r
(PID.TID 0000.0001)     16 s
(PID.TID 0000.0001)     15 t
(PID.TID 0000.0001)     14 u
(PID.TID 0000.0001)     13 u
(PID.TID 0000.0001)     12 v
(PID.TID 0000.0001)     11 w
(PID.TID 0000.0001)     10 x
(PID.TID 0000.0001)      9 x
(PID.TID 0000.0001)      8 y
(PID.TID 0000.0001)      7 y
(PID.TID 0000.0001)      6 z
(PID.TID 0000.0001)      5 z
(PID.TID 0000.0001)      4 +
(PID.TID 0000.0001)      3 +
(PID.TID 0000.0001)      2 +
(PID.TID 0000.0001)      1 +
(PID.TID 0000.0001) // =======================================================
(PID.TID 0000.0001) // END OF FIELD                                          =
(PID.TID 0000.0001) // =======================================================
(PID.TID 0000.0001) 
(PID.TID 0000.0001) // =======================================================
(PID.TID 0000.0001) // Field Current cg2d_x  at iteration       4800
(PID.TID 0000.0001) // CMIN =         -3.086202818885497E-02
(PID.TID 0000.0001) // CMAX =          3.043113993572900E-02
(PID.TID 0000.0001) // CINT =          2.270117337947555E-03
(PID.TID 0000.0001) // SYMBOLS (CMIN->CMAX): -abcdefghijklmnopqrstuvwxyz+
(PID.TID 0000.0001) //                  0.0: .
(PID.TID 0000.0001) // RANGE I (Lo:Hi:Step):(  -2:   4:   1)
(PID.TID 0000.0001) // RANGE J (Lo:Hi:Step):(  35:  -2:  -1)
(PID.TID 0000.0001) // RANGE K (Lo:Hi:Step):(   1:   1:   1)
(PID.TID 0000.0001) // =======================================================
(PID.TID 0000.0001) K =   1
(PID.TID 0000.0001) 
(PID.TID 0000.0001) |--J--|**01234
(PID.TID 0000.0001)     35 zzzzzzz
(PID.TID 0000.0001)     34 +++++++
(PID.TID 0000.0001)     33 +++++++
(PID.TID 0000.0001)     32 .......
(PID.TID 0000.0001)     31 -------
(PID.TID 0000.0001)     30 -------
(PID.TID 0000.0001)     29 aaaaaaa
(PID.TID 0000.0001)     28 aaaaaaa
(PID.TID 0000.0001)     27 bbbbbbb
(PID.TID 0000.0001)     26 ccccccc
(PID.TID 0000.0001)     25 ddddddd
(PID.TID 0000.0001)     24 eeeeeee
(PID.TID 0000.0001)     23 fffffff
(PID.TID 0000.0001)     22 ggggggg
(PID.TID 0000.0001)     21 hhhhhhh
(PID.TID 0000.0001)     20 iiiiiii
(PID.TID 0000.0001)     19 jjjjjjj
(PID.TID 0000.0001)     18 lllllll
(PID.TID 0000.0001)     17 mmmmmmm
(PID.TID 0000.0001)     16 nnnnnnn
(PID.TID 0000.0001)     15 ooooooo
(PID.TID 0000.0001)     14 ppppppp
(PID.TID 0000.0001)     13 qqqqqqq
(PID.TID 0000.0001)     12 rrrrrrr
(PID.TID 0000.0001)     11 sssssss
(PID.TID 0000.0001)     10 ttttttt
(PID.TID 0000.0001)      9 vvvvvvv
(PID.TID 0000.0001)      8 wwwwwww
(PID.TID 0000.0001)      7 xxxxxxx
(PID.TID 0000.0001)      6 yyyyyyy
(PID.TID 0000.0001)      5 yyyyyyy
(PID.TID 0000.0001)      4 zzzzzzz
(PID.TID 0000.0001)      3 zzzzzzz
(PID.TID 0000.0001)      2 +++++++
(PID.TID 0000.0001)      1 +++++++
(PID.TID 0000.0001)      0 .......
(PID.TID 0000.0001)     -1 -------
(PID.TID 0000.0001)     -2 -------
(PID.TID 0000.0001) // =======================================================
(PID.TID 0000.0001) // END OF FIELD                                          =
(PID.TID 0000.0001) // =======================================================
(PID.TID 0000.0001) 
(PID.TID 0000.0001)   Seconds in section "ALL                [THE_MODEL_MAIN]":
(PID.TID 0000.0001)           User time:  313.170002
(PID.TID 0000.0001)         System time:  0.600000024
(PID.TID 0000.0001)     Wall clock time:  345.598962
(PID.TID 0000.0001)          No. starts: 1
(PID.TID 0000.0001)           No. stops: 1
(PID.TID 0000.0001)   Seconds in section "INITIALISE_FIXED   [THE_MODEL_MAIN]":
(PID.TID 0000.0001)           User time:  0.0999999978
(PID.TID 0000.0001)         System time:  0.00999999978
(PID.TID 0000.0001)     Wall clock time:  0.11343801
(PID.TID 0000.0001)          No. starts: 1
(PID.TID 0000.0001)           No. stops: 1
(PID.TID 0000.0001)   Seconds in section "THE_MAIN_LOOP      [THE_MODEL_MAIN]":
(PID.TID 0000.0001)           User time:  313.059993
(PID.TID 0000.0001)         System time:  0.590000024
(PID.TID 0000.0001)     Wall clock time:  345.484954
(PID.TID 0000.0001)          No. starts: 1
(PID.TID 0000.0001)           No. stops: 1
(PID.TID 0000.0001)   Seconds in section "SPIN-UP            [THE_MAIN_LOOP]":
(PID.TID 0000.0001)           User time:  0.0500000045
(PID.TID 0000.0001)         System time:  0.00999999978
(PID.TID 0000.0001)     Wall clock time:  0.0603830814
(PID.TID 0000.0001)          No. starts: 1
(PID.TID 0000.0001)           No. stops: 1
(PID.TID 0000.0001)   Seconds in section "INITIALISE_VARIA   [THE_MAIN_LOOP]":
(PID.TID 0000.0001)           User time:  0.0300000086
(PID.TID 0000.0001)         System time:  0.
(PID.TID 0000.0001)     Wall clock time:  0.0303320885
(PID.TID 0000.0001)          No. starts: 1
(PID.TID 0000.0001)           No. stops: 1
(PID.TID 0000.0001)   Seconds in section "I/O (WRITE)        [THE_MAIN_LOOP]":
(PID.TID 0000.0001)           User time:  0.0600085407
(PID.TID 0000.0001)         System time:  0.0400000308
(PID.TID 0000.0001)     Wall clock time:  0.117790103
(PID.TID 0000.0001)          No. starts: 2
(PID.TID 0000.0001)           No. stops: 2
(PID.TID 0000.0001)   Seconds in section "MAIN LOOP          [THE_MAIN_LOOP]":
(PID.TID 0000.0001)           User time:  312.879988
(PID.TID 0000.0001)         System time:  0.549999993
(PID.TID 0000.0001)     Wall clock time:  345.237139
(PID.TID 0000.0001)          No. starts: 1
(PID.TID 0000.0001)           No. stops: 1
(PID.TID 0000.0001)   Seconds in section "FORWARD_STEP       [THE_MAIN_LOOP]":
(PID.TID 0000.0001)           User time:  312.249928
(PID.TID 0000.0001)         System time:  0.539999973
(PID.TID 0000.0001)     Wall clock time:  344.579935
(PID.TID 0000.0001)          No. starts: 4801
(PID.TID 0000.0001)           No. stops: 4801
(PID.TID 0000.0001)   Seconds in section "I/O (READ)         [FORWARD_STEP]":
(PID.TID 0000.0001)           User time:  0.579948425
(PID.TID 0000.0001)         System time:  0.00999999046
(PID.TID 0000.0001)     Wall clock time:  0.637STOP NORMAL END statement executed
189984
(PID.TID 0000.0001)          No. starts: 4801
(PID.TID 0000.0001)           No. stops: 4801
(PID.TID 0000.0001)   Seconds in section "DYNAMICS           [FORWARD_STEP]":
(PID.TID 0000.0001)           User time:  249.100279
(PID.TID 0000.0001)         System time:  0.0700000338
(PID.TID 0000.0001)     Wall clock time:  275.523116
(PID.TID 0000.0001)          No. starts: 4801
(PID.TID 0000.0001)           No. stops: 4801
(PID.TID 0000.0001)   Seconds in section "I/O (WRITE)        [FORWARD_STEP]":
(PID.TID 0000.0001)           User time:  1.37005819
(PID.TID 0000.0001)         System time:  0.0199999884
(PID.TID 0000.0001)     Wall clock time:  1.36697364
(PID.TID 0000.0001)          No. starts: 9601
(PID.TID 0000.0001)           No. stops: 9601
(PID.TID 0000.0001)   Seconds in section "SOLVE_FOR_PRESSURE [FORWARD_STEP]":
(PID.TID 0000.0001)           User time:  19.5100299
(PID.TID 0000.0001)         System time:  0.329999957
(PID.TID 0000.0001)     Wall clock time:  21.7928333
(PID.TID 0000.0001)          No. starts: 4800
(PID.TID 0000.0001)           No. stops: 4800
(PID.TID 0000.0001)   Seconds in section "BLOCKING_EXCHANGES [FORWARD_STEP]":
(PID.TID 0000.0001)           User time:  17.7097304
(PID.TID 0000.0001)         System time:  0.
(PID.TID 0000.0001)     Wall clock time:  19.358192
(PID.TID 0000.0001)          No. starts: 4800
(PID.TID 0000.0001)           No. stops: 4800
(PID.TID 0000.0001)   Seconds in section "SPIN-DOWN          [THE_MAIN_LOOP]":
(PID.TID 0000.0001)           User time:  0.130004883
(PID.TID 0000.0001)         System time:  0.030000031
(PID.TID 0000.0001)     Wall clock time:  0.186951041
(PID.TID 0000.0001)          No. starts: 1
(PID.TID 0000.0001)           No. stops: 1
(PID.TID 0000.0001) // ======================================================
(PID.TID 0000.0001) // Tile <-> Tile communication statistics
(PID.TID 0000.0001) // ======================================================
(PID.TID 0000.0001) // o Tile number: 000001
(PID.TID 0000.0001) //         No. X exchanges =         316705
(PID.TID 0000.0001) //            Max. X spins =              1
(PID.TID 0000.0001) //            Min. X spins =              1
(PID.TID 0000.0001) //          Total. X spins =         316705
(PID.TID 0000.0001) //            Avg. X spins =       1.00E+00
(PID.TID 0000.0001) //         No. Y exchanges =         316705
(PID.TID 0000.0001) //            Max. Y spins =              1
(PID.TID 0000.0001) //            Min. Y spins =              1
(PID.TID 0000.0001) //          Total. Y spins =         316705
(PID.TID 0000.0001) //            Avg. Y spins =       1.00E+00
(PID.TID 0000.0001) // o Thread number: 000001
(PID.TID 0000.0001) //            No. barriers =              0
(PID.TID 0000.0001) //      Max. barrier spins =              0
(PID.TID 0000.0001) //      Min. barrier spins =     1000000000
(PID.TID 0000.0001) //     Total barrier spins =              0
(PID.TID 0000.0001) //      Avg. barrier spins =       0.00E+00
